CM Example 2 :	Loaded dipole in free space
CM 		See GetStarted.txt
CM 
CM 
CM 
CM 
CE
SY len=6.74	'Symbol: Length for WL/2
SY len2=0.317
GW	0	61	0	-len/2	0	0	len/2	0	0.003175	'Wire 1, 9 segments, halve wavelength long.
GW	1	9	-len2/2	0	0.00635	len2/2	0	0.00635	0.003175
GE	0
LD	5	0	0	0	24900000	'Wire conductivity
LD	5	0	0	0	24900000
GN	-1
EK
EX	0	1	5	0	1	0	0	'Voltage source (1+j0) at wire 1 segment 5.
FR	0	0	0	0	456.5	0
EN
