CM Length X1 = 0.1524
CM Length X2 = 0.1524
CM Length Y = 0.0254
CM Length Z1 = 0.004572
CM Length Z2 = 0.004572
CM X sections = 2
CM Y sections = 2
CM Z sections = 2
CM Rotate X, Y, Z = 0, 0, 0
CM Move X, Y, Z = 0, 0, 0
CE
GW     1    1   -.0762   -.0127  .002286   -.0762   -.0127       .0  .000353
GW     2    1   -.0762   -.0127       .0   -.0762   -.0127 -.002286  .000353
GW     3    1       .0   -.0127  .002286       .0   -.0127       .0  .000353
GW     4    1       .0   -.0127       .0       .0   -.0127 -.002286  .000353
GW     5    1    .0762   -.0127  .002286    .0762   -.0127       .0  .000353
GW     6    1    .0762   -.0127       .0    .0762   -.0127 -.002286  .000353
GW     7    2   -.0762   -.0127  .002286       .0   -.0127  .002286  .000353
GW     8    2       .0   -.0127  .002286    .0762   -.0127  .002286  .000353
GW     9    2   -.0762   -.0127       .0       .0   -.0127       .0  .000353
GW    10    2       .0   -.0127       .0    .0762   -.0127       .0  .000353
GW    11    2   -.0762   -.0127 -.002286       .0   -.0127 -.002286  .000353
GW    12    2       .0   -.0127 -.002286    .0762   -.0127 -.002286  .000353
GW    13    1   -.0762    .0127  .002286   -.0762    .0127       .0  .000353
GW    14    1   -.0762    .0127       .0   -.0762    .0127 -.002286  .000353
GW    15    1       .0    .0127  .002286       .0    .0127       .0  .000353
GW    16    1       .0    .0127       .0       .0    .0127 -.002286  .000353
GW    17    1    .0762    .0127  .002286    .0762    .0127       .0  .000353
GW    18    1    .0762    .0127       .0    .0762    .0127 -.002286  .000353
GW    19    2   -.0762    .0127  .002286       .0    .0127  .002286  .000353
GW    20    2       .0    .0127  .002286    .0762    .0127  .002286  .000353
GW    21    2   -.0762    .0127       .0       .0    .0127       .0  .000353
GW    22    2       .0    .0127       .0    .0762    .0127       .0  .000353
GW    23    2   -.0762    .0127 -.002286       .0    .0127 -.002286  .000353
GW    24    2       .0    .0127 -.002286    .0762    .0127 -.002286  .000353
GW    25    1   -.0762   -.0127  .002286   -.0762       .0  .002286  .000308
GW    26    1   -.0762       .0  .002286   -.0762    .0127  .002286  .000308
GW    27    1   -.0762   -.0127       .0   -.0762       .0       .0  .000308
GW    28    1   -.0762       .0       .0   -.0762    .0127       .0  .000308
GW    29    1   -.0762   -.0127 -.002286   -.0762       .0 -.002286  .000308
GW    30    1   -.0762       .0 -.002286   -.0762    .0127 -.002286  .000308
GW    31    1   -.0762       .0  .002286   -.0762       .0       .0  .000308
GW    32    1   -.0762       .0       .0   -.0762       .0 -.002286  .000308
GW    33    1    .0762   -.0127  .002286    .0762       .0  .002286  .000308
GW    34    1    .0762       .0  .002286    .0762    .0127  .002286  .000308
GW    35    1    .0762   -.0127       .0    .0762       .0       .0  .000308
GW    36    1    .0762       .0       .0    .0762    .0127       .0  .000308
GW    37    1    .0762   -.0127 -.002286    .0762       .0 -.002286  .000308
GW    38    1    .0762       .0 -.002286    .0762    .0127 -.002286  .000308
GW    39    1    .0762       .0  .002286    .0762       .0       .0  .000308
GW    40    1    .0762       .0       .0    .0762       .0 -.002286  .000308
GW    41    1       .0   -.0127  .002286       .0       .0  .002286  .001733
GW    42    1       .0       .0  .002286       .0    .0127  .002286  .001733
GW    43    2   -.0762       .0  .002286       .0       .0  .002286  .001733
GW    44    2       .0       .0  .002286    .0762       .0  .002286  .001733
GW    45    1       .0   -.0127 -.002286       .0       .0 -.002286  .001733
GW    46    1       .0       .0 -.002286       .0    .0127 -.002286  .001733
GW    47    2   -.0762       .0 -.002286       .0       .0 -.002286  .001733
GW    48    2       .0       .0 -.002286    .0762       .0 -.002286  .001733
GE 0
FR 0 0 0 0 435
