CM Length X = 0.0254
CM Y = 0.0762
CM Focus pnt = 0.004572
CM X sections = 5
CM Y sections = 1
CM Rotate X, Y, Z = 0, 0, 0
CM Move X, Y, Z = 0, 0, 0
CE
GW	1	6	-.0127	-.0381	.008819	-.0127	.0381	.008819	.000758
GW	2	6	-.00762	-.0381	.003175	-.00762	.0381	.003175	.000758
GW	3	6	-.00254	-.0381	.000353	-.00254	.0381	.000353	.000758
GW	4	6	.00254	-.0381	.000353	.00254	.0381	.000353	.000758
GW	5	6	.00762	-.0381	.003175	.00762	.0381	.003175	.000758
GW	6	6	.0127	-.0381	.008819	.0127	.0381	.008819	.000758
GW	7	1	-.0127	-.0381	.008819	-.00762	-.0381	.003175	.000758
GW	8	1	-.00762	-.0381	.003175	-.00254	-.0381	.000353	.000758
GW	9	1	-.00254	-.0381	.000353	.00254	-.0381	.000353	.000758
GW	10	1	.00254	-.0381	.000353	.00762	-.0381	.003175	.000758
GW	11	1	.00762	-.0381	.003175	.0127	-.0381	.008819	.000758
GW	12	1	-.0127	.0381	.008819	-.00762	.0381	.003175	.000758
GW	13	1	-.00762	.0381	.003175	-.00254	.0381	.000353	.000758
GW	14	1	-.00254	.0381	.000353	.00254	.0381	.000353	.000758
GW	15	1	.00254	.0381	.000353	.00762	.0381	.003175	.000758
GW	16	1	.00762	.0381	.003175	.0127	.0381	.008819	.000758
GM	1-16	0	0	0	0	0	0.041275
GM	1-16	1	0	0	180
GE	0
GN	-1
EK
FR	0	0	0	0	435	0
EN
