CM Length X = 0.0254
CM Y = 0.1524
CM Focus pnt = 0.004572
CM X sections = 10
CM Y sections = 10
CM Rotate X, Y, Z = 0, 0, 0
CM Move X, Y, Z = 0, 0, 0
CE
GW     1    1   -.0127   -.0762  .008819   -.0127  -.06096  .008819  .000347
GW     2    1   -.0127  -.06096  .008819   -.0127  -.04572  .008819  .000347
GW     3    1   -.0127  -.04572  .008819   -.0127  -.03048  .008819  .000347
GW     4    1   -.0127  -.03048  .008819   -.0127  -.01524  .008819  .000347
GW     5    1   -.0127  -.01524  .008819   -.0127       .0  .008819  .000347
GW     6    1   -.0127       .0  .008819   -.0127   .01524  .008819  .000347
GW     7    1   -.0127   .01524  .008819   -.0127   .03048  .008819  .000347
GW     8    1   -.0127   .03048  .008819   -.0127   .04572  .008819  .000347
GW     9    1   -.0127   .04572  .008819   -.0127   .06096  .008819  .000347
GW    10    1   -.0127   .06096  .008819   -.0127    .0762  .008819  .000347
GW    11    1  -.01016   -.0762  .005644  -.01016  -.06096  .005644  .000347
GW    12    1  -.01016  -.06096  .005644  -.01016  -.04572  .005644  .000347
GW    13    1  -.01016  -.04572  .005644  -.01016  -.03048  .005644  .000347
GW    14    1  -.01016  -.03048  .005644  -.01016  -.01524  .005644  .000347
GW    15    1  -.01016  -.01524  .005644  -.01016       .0  .005644  .000347
GW    16    1  -.01016       .0  .005644  -.01016   .01524  .005644  .000347
GW    17    1  -.01016   .01524  .005644  -.01016   .03048  .005644  .000347
GW    18    1  -.01016   .03048  .005644  -.01016   .04572  .005644  .000347
GW    19    1  -.01016   .04572  .005644  -.01016   .06096  .005644  .000347
GW    20    1  -.01016   .06096  .005644  -.01016    .0762  .005644  .000347
GW    21    1  -.00762   -.0762  .003175  -.00762  -.06096  .003175  .000347
GW    22    1  -.00762  -.06096  .003175  -.00762  -.04572  .003175  .000347
GW    23    1  -.00762  -.04572  .003175  -.00762  -.03048  .003175  .000347
GW    24    1  -.00762  -.03048  .003175  -.00762  -.01524  .003175  .000347
GW    25    1  -.00762  -.01524  .003175  -.00762       .0  .003175  .000347
GW    26    1  -.00762       .0  .003175  -.00762   .01524  .003175  .000347
GW    27    1  -.00762   .01524  .003175  -.00762   .03048  .003175  .000347
GW    28    1  -.00762   .03048  .003175  -.00762   .04572  .003175  .000347
GW    29    1  -.00762   .04572  .003175  -.00762   .06096  .003175  .000347
GW    30    1  -.00762   .06096  .003175  -.00762    .0762  .003175  .000347
GW    31    1  -.00508   -.0762  .001411  -.00508  -.06096  .001411  .000347
GW    32    1  -.00508  -.06096  .001411  -.00508  -.04572  .001411  .000347
GW    33    1  -.00508  -.04572  .001411  -.00508  -.03048  .001411  .000347
GW    34    1  -.00508  -.03048  .001411  -.00508  -.01524  .001411  .000347
GW    35    1  -.00508  -.01524  .001411  -.00508       .0  .001411  .000347
GW    36    1  -.00508       .0  .001411  -.00508   .01524  .001411  .000347
GW    37    1  -.00508   .01524  .001411  -.00508   .03048  .001411  .000347
GW    38    1  -.00508   .03048  .001411  -.00508   .04572  .001411  .000347
GW    39    1  -.00508   .04572  .001411  -.00508   .06096  .001411  .000347
GW    40    1  -.00508   .06096  .001411  -.00508    .0762  .001411  .000347
GW    41    1  -.00254   -.0762  .000353  -.00254  -.06096  .000353  .000347
GW    42    1  -.00254  -.06096  .000353  -.00254  -.04572  .000353  .000347
GW    43    1  -.00254  -.04572  .000353  -.00254  -.03048  .000353  .000347
GW    44    1  -.00254  -.03048  .000353  -.00254  -.01524  .000353  .000347
GW    45    1  -.00254  -.01524  .000353  -.00254       .0  .000353  .000347
GW    46    1  -.00254       .0  .000353  -.00254   .01524  .000353  .000347
GW    47    1  -.00254   .01524  .000353  -.00254   .03048  .000353  .000347
GW    48    1  -.00254   .03048  .000353  -.00254   .04572  .000353  .000347
GW    49    1  -.00254   .04572  .000353  -.00254   .06096  .000353  .000347
GW    50    1  -.00254   .06096  .000353  -.00254    .0762  .000353  .000347
GW    51    1       .0   -.0762       .0       .0  -.06096       .0  .000347
GW    52    1       .0  -.06096       .0       .0  -.04572       .0  .000347
GW    53    1       .0  -.04572       .0       .0  -.03048       .0  .000347
GW    54    1       .0  -.03048       .0       .0  -.01524       .0  .000347
GW    55    1       .0  -.01524       .0       .0       .0       .0  .000347
GW    56    1       .0       .0       .0       .0   .01524       .0  .000347
GW    57    1       .0   .01524       .0       .0   .03048       .0  .000347
GW    58    1       .0   .03048       .0       .0   .04572       .0  .000347
GW    59    1       .0   .04572       .0       .0   .06096       .0  .000347
GW    60    1       .0   .06096       .0       .0    .0762       .0  .000347
GW    61    1   .00254   -.0762  .000353   .00254  -.06096  .000353  .000347
GW    62    1   .00254  -.06096  .000353   .00254  -.04572  .000353  .000347
GW    63    1   .00254  -.04572  .000353   .00254  -.03048  .000353  .000347
GW    64    1   .00254  -.03048  .000353   .00254  -.01524  .000353  .000347
GW    65    1   .00254  -.01524  .000353   .00254       .0  .000353  .000347
GW    66    1   .00254       .0  .000353   .00254   .01524  .000353  .000347
GW    67    1   .00254   .01524  .000353   .00254   .03048  .000353  .000347
GW    68    1   .00254   .03048  .000353   .00254   .04572  .000353  .000347
GW    69    1   .00254   .04572  .000353   .00254   .06096  .000353  .000347
GW    70    1   .00254   .06096  .000353   .00254    .0762  .000353  .000347
GW    71    1   .00508   -.0762  .001411   .00508  -.06096  .001411  .000347
GW    72    1   .00508  -.06096  .001411   .00508  -.04572  .001411  .000347
GW    73    1   .00508  -.04572  .001411   .00508  -.03048  .001411  .000347
GW    74    1   .00508  -.03048  .001411   .00508  -.01524  .001411  .000347
GW    75    1   .00508  -.01524  .001411   .00508       .0  .001411  .000347
GW    76    1   .00508       .0  .001411   .00508   .01524  .001411  .000347
GW    77    1   .00508   .01524  .001411   .00508   .03048  .001411  .000347
GW    78    1   .00508   .03048  .001411   .00508   .04572  .001411  .000347
GW    79    1   .00508   .04572  .001411   .00508   .06096  .001411  .000347
GW    80    1   .00508   .06096  .001411   .00508    .0762  .001411  .000347
GW    81    1   .00762   -.0762  .003175   .00762  -.06096  .003175  .000347
GW    82    1   .00762  -.06096  .003175   .00762  -.04572  .003175  .000347
GW    83    1   .00762  -.04572  .003175   .00762  -.03048  .003175  .000347
GW    84    1   .00762  -.03048  .003175   .00762  -.01524  .003175  .000347
GW    85    1   .00762  -.01524  .003175   .00762       .0  .003175  .000347
GW    86    1   .00762       .0  .003175   .00762   .01524  .003175  .000347
GW    87    1   .00762   .01524  .003175   .00762   .03048  .003175  .000347
GW    88    1   .00762   .03048  .003175   .00762   .04572  .003175  .000347
GW    89    1   .00762   .04572  .003175   .00762   .06096  .003175  .000347
GW    90    1   .00762   .06096  .003175   .00762    .0762  .003175  .000347
GW    91    1   .01016   -.0762  .005644   .01016  -.06096  .005644  .000347
GW    92    1   .01016  -.06096  .005644   .01016  -.04572  .005644  .000347
GW    93    1   .01016  -.04572  .005644   .01016  -.03048  .005644  .000347
GW    94    1   .01016  -.03048  .005644   .01016  -.01524  .005644  .000347
GW    95    1   .01016  -.01524  .005644   .01016       .0  .005644  .000347
GW    96    1   .01016       .0  .005644   .01016   .01524  .005644  .000347
GW    97    1   .01016   .01524  .005644   .01016   .03048  .005644  .000347
GW    98    1   .01016   .03048  .005644   .01016   .04572  .005644  .000347
GW    99    1   .01016   .04572  .005644   .01016   .06096  .005644  .000347
GW   100    1   .01016   .06096  .005644   .01016    .0762  .005644  .000347
GW   101    1    .0127   -.0762  .008819    .0127  -.06096  .008819  .000347
GW   102    1    .0127  -.06096  .008819    .0127  -.04572  .008819  .000347
GW   103    1    .0127  -.04572  .008819    .0127  -.03048  .008819  .000347
GW   104    1    .0127  -.03048  .008819    .0127  -.01524  .008819  .000347
GW   105    1    .0127  -.01524  .008819    .0127       .0  .008819  .000347
GW   106    1    .0127       .0  .008819    .0127   .01524  .008819  .000347
GW   107    1    .0127   .01524  .008819    .0127   .03048  .008819  .000347
GW   108    1    .0127   .03048  .008819    .0127   .04572  .008819  .000347
GW   109    1    .0127   .04572  .008819    .0127   .06096  .008819  .000347
GW   110    1    .0127   .06096  .008819    .0127    .0762  .008819  .000347
GW   111    1   -.0127   -.0762  .008819  -.01016   -.0762  .005644  .000347
GW   112    1  -.01016   -.0762  .005644  -.00762   -.0762  .003175  .000347
GW   113    1  -.00762   -.0762  .003175  -.00508   -.0762  .001411  .000347
GW   114    1  -.00508   -.0762  .001411  -.00254   -.0762  .000353  .000347
GW   115    1  -.00254   -.0762  .000353       .0   -.0762       .0  .000347
GW   116    1       .0   -.0762       .0   .00254   -.0762  .000353  .000347
GW   117    1   .00254   -.0762  .000353   .00508   -.0762  .001411  .000347
GW   118    1   .00508   -.0762  .001411   .00762   -.0762  .003175  .000347
GW   119    1   .00762   -.0762  .003175   .01016   -.0762  .005644  .000347
GW   120    1   .01016   -.0762  .005644    .0127   -.0762  .008819  .000347
GW   121    1   -.0127  -.06096  .008819  -.01016  -.06096  .005644  .000347
GW   122    1  -.01016  -.06096  .005644  -.00762  -.06096  .003175  .000347
GW   123    1  -.00762  -.06096  .003175  -.00508  -.06096  .001411  .000347
GW   124    1  -.00508  -.06096  .001411  -.00254  -.06096  .000353  .000347
GW   125    1  -.00254  -.06096  .000353       .0  -.06096       .0  .000347
GW   126    1       .0  -.06096       .0   .00254  -.06096  .000353  .000347
GW   127    1   .00254  -.06096  .000353   .00508  -.06096  .001411  .000347
GW   128    1   .00508  -.06096  .001411   .00762  -.06096  .003175  .000347
GW   129    1   .00762  -.06096  .003175   .01016  -.06096  .005644  .000347
GW   130    1   .01016  -.06096  .005644    .0127  -.06096  .008819  .000347
GW   131    1   -.0127  -.04572  .008819  -.01016  -.04572  .005644  .000347
GW   132    1  -.01016  -.04572  .005644  -.00762  -.04572  .003175  .000347
GW   133    1  -.00762  -.04572  .003175  -.00508  -.04572  .001411  .000347
GW   134    1  -.00508  -.04572  .001411  -.00254  -.04572  .000353  .000347
GW   135    1  -.00254  -.04572  .000353       .0  -.04572       .0  .000347
GW   136    1       .0  -.04572       .0   .00254  -.04572  .000353  .000347
GW   137    1   .00254  -.04572  .000353   .00508  -.04572  .001411  .000347
GW   138    1   .00508  -.04572  .001411   .00762  -.04572  .003175  .000347
GW   139    1   .00762  -.04572  .003175   .01016  -.04572  .005644  .000347
GW   140    1   .01016  -.04572  .005644    .0127  -.04572  .008819  .000347
GW   141    1   -.0127  -.03048  .008819  -.01016  -.03048  .005644  .000347
GW   142    1  -.01016  -.03048  .005644  -.00762  -.03048  .003175  .000347
GW   143    1  -.00762  -.03048  .003175  -.00508  -.03048  .001411  .000347
GW   144    1  -.00508  -.03048  .001411  -.00254  -.03048  .000353  .000347
GW   145    1  -.00254  -.03048  .000353       .0  -.03048       .0  .000347
GW   146    1       .0  -.03048       .0   .00254  -.03048  .000353  .000347
GW   147    1   .00254  -.03048  .000353   .00508  -.03048  .001411  .000347
GW   148    1   .00508  -.03048  .001411   .00762  -.03048  .003175  .000347
GW   149    1   .00762  -.03048  .003175   .01016  -.03048  .005644  .000347
GW   150    1   .01016  -.03048  .005644    .0127  -.03048  .008819  .000347
GW   151    1   -.0127  -.01524  .008819  -.01016  -.01524  .005644  .000347
GW   152    1  -.01016  -.01524  .005644  -.00762  -.01524  .003175  .000347
GW   153    1  -.00762  -.01524  .003175  -.00508  -.01524  .001411  .000347
GW   154    1  -.00508  -.01524  .001411  -.00254  -.01524  .000353  .000347
GW   155    1  -.00254  -.01524  .000353       .0  -.01524       .0  .000347
GW   156    1       .0  -.01524       .0   .00254  -.01524  .000353  .000347
GW   157    1   .00254  -.01524  .000353   .00508  -.01524  .001411  .000347
GW   158    1   .00508  -.01524  .001411   .00762  -.01524  .003175  .000347
GW   159    1   .00762  -.01524  .003175   .01016  -.01524  .005644  .000347
GW   160    1   .01016  -.01524  .005644    .0127  -.01524  .008819  .000347
GW   161    1   -.0127       .0  .008819  -.01016       .0  .005644  .000347
GW   162    1  -.01016       .0  .005644  -.00762       .0  .003175  .000347
GW   163    1  -.00762       .0  .003175  -.00508       .0  .001411  .000347
GW   164    1  -.00508       .0  .001411  -.00254       .0  .000353  .000347
GW   165    1  -.00254       .0  .000353       .0       .0       .0  .000347
GW   166    1       .0       .0       .0   .00254       .0  .000353  .000347
GW   167    1   .00254       .0  .000353   .00508       .0  .001411  .000347
GW   168    1   .00508       .0  .001411   .00762       .0  .003175  .000347
GW   169    1   .00762       .0  .003175   .01016       .0  .005644  .000347
GW   170    1   .01016       .0  .005644    .0127       .0  .008819  .000347
GW   171    1   -.0127   .01524  .008819  -.01016   .01524  .005644  .000347
GW   172    1  -.01016   .01524  .005644  -.00762   .01524  .003175  .000347
GW   173    1  -.00762   .01524  .003175  -.00508   .01524  .001411  .000347
GW   174    1  -.00508   .01524  .001411  -.00254   .01524  .000353  .000347
GW   175    1  -.00254   .01524  .000353       .0   .01524       .0  .000347
GW   176    1       .0   .01524       .0   .00254   .01524  .000353  .000347
GW   177    1   .00254   .01524  .000353   .00508   .01524  .001411  .000347
GW   178    1   .00508   .01524  .001411   .00762   .01524  .003175  .000347
GW   179    1   .00762   .01524  .003175   .01016   .01524  .005644  .000347
GW   180    1   .01016   .01524  .005644    .0127   .01524  .008819  .000347
GW   181    1   -.0127   .03048  .008819  -.01016   .03048  .005644  .000347
GW   182    1  -.01016   .03048  .005644  -.00762   .03048  .003175  .000347
GW   183    1  -.00762   .03048  .003175  -.00508   .03048  .001411  .000347
GW   184    1  -.00508   .03048  .001411  -.00254   .03048  .000353  .000347
GW   185    1  -.00254   .03048  .000353       .0   .03048       .0  .000347
GW   186    1       .0   .03048       .0   .00254   .03048  .000353  .000347
GW   187    1   .00254   .03048  .000353   .00508   .03048  .001411  .000347
GW   188    1   .00508   .03048  .001411   .00762   .03048  .003175  .000347
GW   189    1   .00762   .03048  .003175   .01016   .03048  .005644  .000347
GW   190    1   .01016   .03048  .005644    .0127   .03048  .008819  .000347
GW   191    1   -.0127   .04572  .008819  -.01016   .04572  .005644  .000347
GW   192    1  -.01016   .04572  .005644  -.00762   .04572  .003175  .000347
GW   193    1  -.00762   .04572  .003175  -.00508   .04572  .001411  .000347
GW   194    1  -.00508   .04572  .001411  -.00254   .04572  .000353  .000347
GW   195    1  -.00254   .04572  .000353       .0   .04572       .0  .000347
GW   196    1       .0   .04572       .0   .00254   .04572  .000353  .000347
GW   197    1   .00254   .04572  .000353   .00508   .04572  .001411  .000347
GW   198    1   .00508   .04572  .001411   .00762   .04572  .003175  .000347
GW   199    1   .00762   .04572  .003175   .01016   .04572  .005644  .000347
GW   200    1   .01016   .04572  .005644    .0127   .04572  .008819  .000347
GW   201    1   -.0127   .06096  .008819  -.01016   .06096  .005644  .000347
GW   202    1  -.01016   .06096  .005644  -.00762   .06096  .003175  .000347
GW   203    1  -.00762   .06096  .003175  -.00508   .06096  .001411  .000347
GW   204    1  -.00508   .06096  .001411  -.00254   .06096  .000353  .000347
GW   205    1  -.00254   .06096  .000353       .0   .06096       .0  .000347
GW   206    1       .0   .06096       .0   .00254   .06096  .000353  .000347
GW   207    1   .00254   .06096  .000353   .00508   .06096  .001411  .000347
GW   208    1   .00508   .06096  .001411   .00762   .06096  .003175  .000347
GW   209    1   .00762   .06096  .003175   .01016   .06096  .005644  .000347
GW   210    1   .01016   .06096  .005644    .0127   .06096  .008819  .000347
GW   211    1   -.0127    .0762  .008819  -.01016    .0762  .005644  .000347
GW   212    1  -.01016    .0762  .005644  -.00762    .0762  .003175  .000347
GW   213    1  -.00762    .0762  .003175  -.00508    .0762  .001411  .000347
GW   214    1  -.00508    .0762  .001411  -.00254    .0762  .000353  .000347
GW   215    1  -.00254    .0762  .000353       .0    .0762       .0  .000347
GW   216    1       .0    .0762       .0   .00254    .0762  .000353  .000347
GW   217    1   .00254    .0762  .000353   .00508    .0762  .001411  .000347
GW   218    1   .00508    .0762  .001411   .00762    .0762  .003175  .000347
GW   219    1   .00762    .0762  .003175   .01016    .0762  .005644  .000347
GW   220    1   .01016    .0762  .005644    .0127    .0762  .008819  .000347
GE 0
FR 0 0 0 0 435
