CM Length X = 0.0254
CM Y = 0.0762
CM Focus pnt = 0.004572
CM X sections = 5
CM Y sections = 10
CM Rotate X, Y, Z = 0, 0, 0
CM Move X, Y, Z = 0, 0, 0
CE
GW	1	1	-.0127	-.0381	.008819	-.0127	-.03048	.008819	.000485
GW	2	1	-.0127	-.03048	.008819	-.0127	-.02286	.008819	.000485
GW	3	1	-.0127	-.02286	.008819	-.0127	-.01524	.008819	.000485
GW	4	1	-.0127	-.01524	.008819	-.0127	-.00762	.008819	.000485
GW	5	1	-.0127	-.00762	.008819	-.0127	0	.008819	.000485
GW	6	1	-.0127	0	.008819	-.0127	.00762	.008819	.000485
GW	7	1	-.0127	.00762	.008819	-.0127	.01524	.008819	.000485
GW	8	1	-.0127	.01524	.008819	-.0127	.02286	.008819	.000485
GW	9	1	-.0127	.02286	.008819	-.0127	.03048	.008819	.000485
GW	10	1	-.0127	.03048	.008819	-.0127	.0381	.008819	.000485
GW	11	1	-.00762	-.0381	.003175	-.00762	-.03048	.003175	.000485
GW	12	1	-.00762	-.03048	.003175	-.00762	-.02286	.003175	.000485
GW	13	1	-.00762	-.02286	.003175	-.00762	-.01524	.003175	.000485
GW	14	1	-.00762	-.01524	.003175	-.00762	-.00762	.003175	.000485
GW	15	1	-.00762	-.00762	.003175	-.00762	0	.003175	.000485
GW	16	1	-.00762	0	.003175	-.00762	.00762	.003175	.000485
GW	17	1	-.00762	.00762	.003175	-.00762	.01524	.003175	.000485
GW	18	1	-.00762	.01524	.003175	-.00762	.02286	.003175	.000485
GW	19	1	-.00762	.02286	.003175	-.00762	.03048	.003175	.000485
GW	20	1	-.00762	.03048	.003175	-.00762	.0381	.003175	.000485
GW	21	1	-.00254	-.0381	.000353	-.00254	-.03048	.000353	.000485
GW	22	1	-.00254	-.03048	.000353	-.00254	-.02286	.000353	.000485
GW	23	1	-.00254	-.02286	.000353	-.00254	-.01524	.000353	.000485
GW	24	1	-.00254	-.01524	.000353	-.00254	-.00762	.000353	.000485
GW	25	1	-.00254	-.00762	.000353	-.00254	0	.000353	.000485
GW	26	1	-.00254	0	.000353	-.00254	.00762	.000353	.000485
GW	27	1	-.00254	.00762	.000353	-.00254	.01524	.000353	.000485
GW	28	1	-.00254	.01524	.000353	-.00254	.02286	.000353	.000485
GW	29	1	-.00254	.02286	.000353	-.00254	.03048	.000353	.000485
GW	30	1	-.00254	.03048	.000353	-.00254	.0381	.000353	.000485
GW	31	1	.00254	-.0381	.000353	.00254	-.03048	.000353	.000485
GW	32	1	.00254	-.03048	.000353	.00254	-.02286	.000353	.000485
GW	33	1	.00254	-.02286	.000353	.00254	-.01524	.000353	.000485
GW	34	1	.00254	-.01524	.000353	.00254	-.00762	.000353	.000485
GW	35	1	.00254	-.00762	.000353	.00254	0	.000353	.000485
GW	36	1	.00254	0	.000353	.00254	.00762	.000353	.000485
GW	37	1	.00254	.00762	.000353	.00254	.01524	.000353	.000485
GW	38	1	.00254	.01524	.000353	.00254	.02286	.000353	.000485
GW	39	1	.00254	.02286	.000353	.00254	.03048	.000353	.000485
GW	40	1	.00254	.03048	.000353	.00254	.0381	.000353	.000485
GW	41	1	.00762	-.0381	.003175	.00762	-.03048	.003175	.000485
GW	42	1	.00762	-.03048	.003175	.00762	-.02286	.003175	.000485
GW	43	1	.00762	-.02286	.003175	.00762	-.01524	.003175	.000485
GW	44	1	.00762	-.01524	.003175	.00762	-.00762	.003175	.000485
GW	45	1	.00762	-.00762	.003175	.00762	0	.003175	.000485
GW	46	1	.00762	0	.003175	.00762	.00762	.003175	.000485
GW	47	1	.00762	.00762	.003175	.00762	.01524	.003175	.000485
GW	48	1	.00762	.01524	.003175	.00762	.02286	.003175	.000485
GW	49	1	.00762	.02286	.003175	.00762	.03048	.003175	.000485
GW	50	1	.00762	.03048	.003175	.00762	.0381	.003175	.000485
GW	51	1	.0127	-.0381	.008819	.0127	-.03048	.008819	.000485
GW	52	1	.0127	-.03048	.008819	.0127	-.02286	.008819	.000485
GW	53	1	.0127	-.02286	.008819	.0127	-.01524	.008819	.000485
GW	54	1	.0127	-.01524	.008819	.0127	-.00762	.008819	.000485
GW	55	1	.0127	-.00762	.008819	.0127	0	.008819	.000485
GW	56	1	.0127	0	.008819	.0127	.00762	.008819	.000485
GW	57	1	.0127	.00762	.008819	.0127	.01524	.008819	.000485
GW	58	1	.0127	.01524	.008819	.0127	.02286	.008819	.000485
GW	59	1	.0127	.02286	.008819	.0127	.03048	.008819	.000485
GW	60	1	.0127	.03048	.008819	.0127	.0381	.008819	.000485
GW	61	1	-.0127	-.0381	.008819	-.00762	-.0381	.003175	.000485
GW	62	1	-.00762	-.0381	.003175	-.00254	-.0381	.000353	.000485
GW	63	1	-.00254	-.0381	.000353	.00254	-.0381	.000353	.000485
GW	64	1	.00254	-.0381	.000353	.00762	-.0381	.003175	.000485
GW	65	1	.00762	-.0381	.003175	.0127	-.0381	.008819	.000485
GW	66	1	-.0127	-.03048	.008819	-.00762	-.03048	.003175	.000485
GW	67	1	-.00762	-.03048	.003175	-.00254	-.03048	.000353	.000485
GW	68	1	-.00254	-.03048	.000353	.00254	-.03048	.000353	.000485
GW	69	1	.00254	-.03048	.000353	.00762	-.03048	.003175	.000485
GW	70	1	.00762	-.03048	.003175	.0127	-.03048	.008819	.000485
GW	71	1	-.0127	-.02286	.008819	-.00762	-.02286	.003175	.000485
GW	72	1	-.00762	-.02286	.003175	-.00254	-.02286	.000353	.000485
GW	73	1	-.00254	-.02286	.000353	.00254	-.02286	.000353	.000485
GW	74	1	.00254	-.02286	.000353	.00762	-.02286	.003175	.000485
GW	75	1	.00762	-.02286	.003175	.0127	-.02286	.008819	.000485
GW	76	1	-.0127	-.01524	.008819	-.00762	-.01524	.003175	.000485
GW	77	1	-.00762	-.01524	.003175	-.00254	-.01524	.000353	.000485
GW	78	1	-.00254	-.01524	.000353	.00254	-.01524	.000353	.000485
GW	79	1	.00254	-.01524	.000353	.00762	-.01524	.003175	.000485
GW	80	1	.00762	-.01524	.003175	.0127	-.01524	.008819	.000485
GW	81	1	-.0127	-.00762	.008819	-.00762	-.00762	.003175	.000485
GW	82	1	-.00762	-.00762	.003175	-.00254	-.00762	.000353	.000485
GW	83	1	-.00254	-.00762	.000353	.00254	-.00762	.000353	.000485
GW	84	1	.00254	-.00762	.000353	.00762	-.00762	.003175	.000485
GW	85	1	.00762	-.00762	.003175	.0127	-.00762	.008819	.000485
GW	86	1	-.0127	0	.008819	-.00762	0	.003175	.000485
GW	87	1	-.00762	0	.003175	-.00254	0	.000353	.000485
GW	88	1	-.00254	0	.000353	.00254	0	.000353	.000485
GW	89	1	.00254	0	.000353	.00762	0	.003175	.000485
GW	90	1	.00762	0	.003175	.0127	0	.008819	.000485
GW	91	1	-.0127	.00762	.008819	-.00762	.00762	.003175	.000485
GW	92	1	-.00762	.00762	.003175	-.00254	.00762	.000353	.000485
GW	93	1	-.00254	.00762	.000353	.00254	.00762	.000353	.000485
GW	94	1	.00254	.00762	.000353	.00762	.00762	.003175	.000485
GW	95	1	.00762	.00762	.003175	.0127	.00762	.008819	.000485
GW	96	1	-.0127	.01524	.008819	-.00762	.01524	.003175	.000485
GW	97	1	-.00762	.01524	.003175	-.00254	.01524	.000353	.000485
GW	98	1	-.00254	.01524	.000353	.00254	.01524	.000353	.000485
GW	99	1	.00254	.01524	.000353	.00762	.01524	.003175	.000485
GW	100	1	.00762	.01524	.003175	.0127	.01524	.008819	.000485
GW	101	1	-.0127	.02286	.008819	-.00762	.02286	.003175	.000485
GW	102	1	-.00762	.02286	.003175	-.00254	.02286	.000353	.000485
GW	103	1	-.00254	.02286	.000353	.00254	.02286	.000353	.000485
GW	104	1	.00254	.02286	.000353	.00762	.02286	.003175	.000485
GW	105	1	.00762	.02286	.003175	.0127	.02286	.008819	.000485
GW	106	1	-.0127	.03048	.008819	-.00762	.03048	.003175	.000485
GW	107	1	-.00762	.03048	.003175	-.00254	.03048	.000353	.000485
GW	108	1	-.00254	.03048	.000353	.00254	.03048	.000353	.000485
GW	109	1	.00254	.03048	.000353	.00762	.03048	.003175	.000485
GW	110	1	.00762	.03048	.003175	.0127	.03048	.008819	.000485
GW	111	1	-.0127	.0381	.008819	-.00762	.0381	.003175	.000485
GW	112	1	-.00762	.0381	.003175	-.00254	.0381	.000353	.000485
GW	113	1	-.00254	.0381	.000353	.00254	.0381	.000353	.000485
GW	114	1	.00254	.0381	.000353	.00762	.0381	.003175	.000485
GW	115	1	.00762	.0381	.003175	.0127	.0381	.008819	.000485
GE	0
GN	-1
EK
FR	0	0	0	0	435	0
EN
