CM Length X = 0.0254
CM Y = 0.0762
CM Focus pnt = 0.004572
CM X sections = 20
CM Y sections = 11
CM Rotate X, Y, Z = 0, 0, 0
CM Move X, Y, Z = 0, 0, 0
CE
GW	1	1	-.0127	-.0381	.008819	-.0127	-.031173	.008819	.000171
GW	2	1	-.0127	-.031173	.008819	-.0127	-.024245	.008819	.000171
GW	3	1	-.0127	-.024245	.008819	-.0127	-.017318	.008819	.000171
GW	4	1	-.0127	-.017318	.008819	-.0127	-.010391	.008819	.000171
GW	5	1	-.0127	-.010391	.008819	-.0127	-.003464	.008819	.000171
GW	6	1	-.0127	-.003464	.008819	-.0127	.003464	.008819	.000171
GW	7	1	-.0127	.003464	.008819	-.0127	.010391	.008819	.000171
GW	8	1	-.0127	.010391	.008819	-.0127	.017318	.008819	.000171
GW	9	1	-.0127	.017318	.008819	-.0127	.024245	.008819	.000171
GW	10	1	-.0127	.024245	.008819	-.0127	.031173	.008819	.000171
GW	11	1	-.0127	.031173	.008819	-.0127	.0381	.008819	.000171
GW	12	1	-.01143	-.0381	.007144	-.01143	-.031173	.007144	.000171
GW	13	1	-.01143	-.031173	.007144	-.01143	-.024245	.007144	.000171
GW	14	1	-.01143	-.024245	.007144	-.01143	-.017318	.007144	.000171
GW	15	1	-.01143	-.017318	.007144	-.01143	-.010391	.007144	.000171
GW	16	1	-.01143	-.010391	.007144	-.01143	-.003464	.007144	.000171
GW	17	1	-.01143	-.003464	.007144	-.01143	.003464	.007144	.000171
GW	18	1	-.01143	.003464	.007144	-.01143	.010391	.007144	.000171
GW	19	1	-.01143	.010391	.007144	-.01143	.017318	.007144	.000171
GW	20	1	-.01143	.017318	.007144	-.01143	.024245	.007144	.000171
GW	21	1	-.01143	.024245	.007144	-.01143	.031173	.007144	.000171
GW	22	1	-.01143	.031173	.007144	-.01143	.0381	.007144	.000171
GW	23	1	-.01016	-.0381	.005644	-.01016	-.031173	.005644	.000171
GW	24	1	-.01016	-.031173	.005644	-.01016	-.024245	.005644	.000171
GW	25	1	-.01016	-.024245	.005644	-.01016	-.017318	.005644	.000171
GW	26	1	-.01016	-.017318	.005644	-.01016	-.010391	.005644	.000171
GW	27	1	-.01016	-.010391	.005644	-.01016	-.003464	.005644	.000171
GW	28	1	-.01016	-.003464	.005644	-.01016	.003464	.005644	.000171
GW	29	1	-.01016	.003464	.005644	-.01016	.010391	.005644	.000171
GW	30	1	-.01016	.010391	.005644	-.01016	.017318	.005644	.000171
GW	31	1	-.01016	.017318	.005644	-.01016	.024245	.005644	.000171
GW	32	1	-.01016	.024245	.005644	-.01016	.031173	.005644	.000171
GW	33	1	-.01016	.031173	.005644	-.01016	.0381	.005644	.000171
GW	34	1	-.00889	-.0381	.004322	-.00889	-.031173	.004322	.000171
GW	35	1	-.00889	-.031173	.004322	-.00889	-.024245	.004322	.000171
GW	36	1	-.00889	-.024245	.004322	-.00889	-.017318	.004322	.000171
GW	37	1	-.00889	-.017318	.004322	-.00889	-.010391	.004322	.000171
GW	38	1	-.00889	-.010391	.004322	-.00889	-.003464	.004322	.000171
GW	39	1	-.00889	-.003464	.004322	-.00889	.003464	.004322	.000171
GW	40	1	-.00889	.003464	.004322	-.00889	.010391	.004322	.000171
GW	41	1	-.00889	.010391	.004322	-.00889	.017318	.004322	.000171
GW	42	1	-.00889	.017318	.004322	-.00889	.024245	.004322	.000171
GW	43	1	-.00889	.024245	.004322	-.00889	.031173	.004322	.000171
GW	44	1	-.00889	.031173	.004322	-.00889	.0381	.004322	.000171
GW	45	1	-.00762	-.0381	.003175	-.00762	-.031173	.003175	.000171
GW	46	1	-.00762	-.031173	.003175	-.00762	-.024245	.003175	.000171
GW	47	1	-.00762	-.024245	.003175	-.00762	-.017318	.003175	.000171
GW	48	1	-.00762	-.017318	.003175	-.00762	-.010391	.003175	.000171
GW	49	1	-.00762	-.010391	.003175	-.00762	-.003464	.003175	.000171
GW	50	1	-.00762	-.003464	.003175	-.00762	.003464	.003175	.000171
GW	51	1	-.00762	.003464	.003175	-.00762	.010391	.003175	.000171
GW	52	1	-.00762	.010391	.003175	-.00762	.017318	.003175	.000171
GW	53	1	-.00762	.017318	.003175	-.00762	.024245	.003175	.000171
GW	54	1	-.00762	.024245	.003175	-.00762	.031173	.003175	.000171
GW	55	1	-.00762	.031173	.003175	-.00762	.0381	.003175	.000171
GW	56	1	-.00635	-.0381	.002205	-.00635	-.031173	.002205	.000171
GW	57	1	-.00635	-.031173	.002205	-.00635	-.024245	.002205	.000171
GW	58	1	-.00635	-.024245	.002205	-.00635	-.017318	.002205	.000171
GW	59	1	-.00635	-.017318	.002205	-.00635	-.010391	.002205	.000171
GW	60	1	-.00635	-.010391	.002205	-.00635	-.003464	.002205	.000171
GW	61	1	-.00635	-.003464	.002205	-.00635	.003464	.002205	.000171
GW	62	1	-.00635	.003464	.002205	-.00635	.010391	.002205	.000171
GW	63	1	-.00635	.010391	.002205	-.00635	.017318	.002205	.000171
GW	64	1	-.00635	.017318	.002205	-.00635	.024245	.002205	.000171
GW	65	1	-.00635	.024245	.002205	-.00635	.031173	.002205	.000171
GW	66	1	-.00635	.031173	.002205	-.00635	.0381	.002205	.000171
GW	67	1	-.00508	-.0381	.001411	-.00508	-.031173	.001411	.000171
GW	68	1	-.00508	-.031173	.001411	-.00508	-.024245	.001411	.000171
GW	69	1	-.00508	-.024245	.001411	-.00508	-.017318	.001411	.000171
GW	70	1	-.00508	-.017318	.001411	-.00508	-.010391	.001411	.000171
GW	71	1	-.00508	-.010391	.001411	-.00508	-.003464	.001411	.000171
GW	72	1	-.00508	-.003464	.001411	-.00508	.003464	.001411	.000171
GW	73	1	-.00508	.003464	.001411	-.00508	.010391	.001411	.000171
GW	74	1	-.00508	.010391	.001411	-.00508	.017318	.001411	.000171
GW	75	1	-.00508	.017318	.001411	-.00508	.024245	.001411	.000171
GW	76	1	-.00508	.024245	.001411	-.00508	.031173	.001411	.000171
GW	77	1	-.00508	.031173	.001411	-.00508	.0381	.001411	.000171
GW	78	1	-.00381	-.0381	.000794	-.00381	-.031173	.000794	.000171
GW	79	1	-.00381	-.031173	.000794	-.00381	-.024245	.000794	.000171
GW	80	1	-.00381	-.024245	.000794	-.00381	-.017318	.000794	.000171
GW	81	1	-.00381	-.017318	.000794	-.00381	-.010391	.000794	.000171
GW	82	1	-.00381	-.010391	.000794	-.00381	-.003464	.000794	.000171
GW	83	1	-.00381	-.003464	.000794	-.00381	.003464	.000794	.000171
GW	84	1	-.00381	.003464	.000794	-.00381	.010391	.000794	.000171
GW	85	1	-.00381	.010391	.000794	-.00381	.017318	.000794	.000171
GW	86	1	-.00381	.017318	.000794	-.00381	.024245	.000794	.000171
GW	87	1	-.00381	.024245	.000794	-.00381	.031173	.000794	.000171
GW	88	1	-.00381	.031173	.000794	-.00381	.0381	.000794	.000171
GW	89	1	-.00254	-.0381	.000353	-.00254	-.031173	.000353	.000171
GW	90	1	-.00254	-.031173	.000353	-.00254	-.024245	.000353	.000171
GW	91	1	-.00254	-.024245	.000353	-.00254	-.017318	.000353	.000171
GW	92	1	-.00254	-.017318	.000353	-.00254	-.010391	.000353	.000171
GW	93	1	-.00254	-.010391	.000353	-.00254	-.003464	.000353	.000171
GW	94	1	-.00254	-.003464	.000353	-.00254	.003464	.000353	.000171
GW	95	1	-.00254	.003464	.000353	-.00254	.010391	.000353	.000171
GW	96	1	-.00254	.010391	.000353	-.00254	.017318	.000353	.000171
GW	97	1	-.00254	.017318	.000353	-.00254	.024245	.000353	.000171
GW	98	1	-.00254	.024245	.000353	-.00254	.031173	.000353	.000171
GW	99	1	-.00254	.031173	.000353	-.00254	.0381	.000353	.000171
GW	100	1	-.00127	-.0381	.000088	-.00127	-.031173	.000088	.000171
GW	101	1	-.00127	-.031173	.000088	-.00127	-.024245	.000088	.000171
GW	102	1	-.00127	-.024245	.000088	-.00127	-.017318	.000088	.000171
GW	103	1	-.00127	-.017318	.000088	-.00127	-.010391	.000088	.000171
GW	104	1	-.00127	-.010391	.000088	-.00127	-.003464	.000088	.000171
GW	105	1	-.00127	-.003464	.000088	-.00127	.003464	.000088	.000171
GW	106	1	-.00127	.003464	.000088	-.00127	.010391	.000088	.000171
GW	107	1	-.00127	.010391	.000088	-.00127	.017318	.000088	.000171
GW	108	1	-.00127	.017318	.000088	-.00127	.024245	.000088	.000171
GW	109	1	-.00127	.024245	.000088	-.00127	.031173	.000088	.000171
GW	110	1	-.00127	.031173	.000088	-.00127	.0381	.000088	.000171
GW	111	1	0	-.0381	0	0	-.031173	0	.000171
GW	112	1	0	-.031173	0	0	-.024245	0	.000171
GW	113	1	0	-.024245	0	0	-.017318	0	.000171
GW	114	1	0	-.017318	0	0	-.010391	0	.000171
GW	115	1	0	-.010391	0	0	-.003464	0	.000171
GW	116	1	0	-.003464	0	0	.003464	0	.000171
GW	117	1	0	.003464	0	0	.010391	0	.000171
GW	118	1	0	.010391	0	0	.017318	0	.000171
GW	119	1	0	.017318	0	0	.024245	0	.000171
GW	120	1	0	.024245	0	0	.031173	0	.000171
GW	121	1	0	.031173	0	0	.0381	0	.000171
GW	122	1	.00127	-.0381	.000088	.00127	-.031173	.000088	.000171
GW	123	1	.00127	-.031173	.000088	.00127	-.024245	.000088	.000171
GW	124	1	.00127	-.024245	.000088	.00127	-.017318	.000088	.000171
GW	125	1	.00127	-.017318	.000088	.00127	-.010391	.000088	.000171
GW	126	1	.00127	-.010391	.000088	.00127	-.003464	.000088	.000171
GW	127	1	.00127	-.003464	.000088	.00127	.003464	.000088	.000171
GW	128	1	.00127	.003464	.000088	.00127	.010391	.000088	.000171
GW	129	1	.00127	.010391	.000088	.00127	.017318	.000088	.000171
GW	130	1	.00127	.017318	.000088	.00127	.024245	.000088	.000171
GW	131	1	.00127	.024245	.000088	.00127	.031173	.000088	.000171
GW	132	1	.00127	.031173	.000088	.00127	.0381	.000088	.000171
GW	133	1	.00254	-.0381	.000353	.00254	-.031173	.000353	.000171
GW	134	1	.00254	-.031173	.000353	.00254	-.024245	.000353	.000171
GW	135	1	.00254	-.024245	.000353	.00254	-.017318	.000353	.000171
GW	136	1	.00254	-.017318	.000353	.00254	-.010391	.000353	.000171
GW	137	1	.00254	-.010391	.000353	.00254	-.003464	.000353	.000171
GW	138	1	.00254	-.003464	.000353	.00254	.003464	.000353	.000171
GW	139	1	.00254	.003464	.000353	.00254	.010391	.000353	.000171
GW	140	1	.00254	.010391	.000353	.00254	.017318	.000353	.000171
GW	141	1	.00254	.017318	.000353	.00254	.024245	.000353	.000171
GW	142	1	.00254	.024245	.000353	.00254	.031173	.000353	.000171
GW	143	1	.00254	.031173	.000353	.00254	.0381	.000353	.000171
GW	144	1	.00381	-.0381	.000794	.00381	-.031173	.000794	.000171
GW	145	1	.00381	-.031173	.000794	.00381	-.024245	.000794	.000171
GW	146	1	.00381	-.024245	.000794	.00381	-.017318	.000794	.000171
GW	147	1	.00381	-.017318	.000794	.00381	-.010391	.000794	.000171
GW	148	1	.00381	-.010391	.000794	.00381	-.003464	.000794	.000171
GW	149	1	.00381	-.003464	.000794	.00381	.003464	.000794	.000171
GW	150	1	.00381	.003464	.000794	.00381	.010391	.000794	.000171
GW	151	1	.00381	.010391	.000794	.00381	.017318	.000794	.000171
GW	152	1	.00381	.017318	.000794	.00381	.024245	.000794	.000171
GW	153	1	.00381	.024245	.000794	.00381	.031173	.000794	.000171
GW	154	1	.00381	.031173	.000794	.00381	.0381	.000794	.000171
GW	155	1	.00508	-.0381	.001411	.00508	-.031173	.001411	.000171
GW	156	1	.00508	-.031173	.001411	.00508	-.024245	.001411	.000171
GW	157	1	.00508	-.024245	.001411	.00508	-.017318	.001411	.000171
GW	158	1	.00508	-.017318	.001411	.00508	-.010391	.001411	.000171
GW	159	1	.00508	-.010391	.001411	.00508	-.003464	.001411	.000171
GW	160	1	.00508	-.003464	.001411	.00508	.003464	.001411	.000171
GW	161	1	.00508	.003464	.001411	.00508	.010391	.001411	.000171
GW	162	1	.00508	.010391	.001411	.00508	.017318	.001411	.000171
GW	163	1	.00508	.017318	.001411	.00508	.024245	.001411	.000171
GW	164	1	.00508	.024245	.001411	.00508	.031173	.001411	.000171
GW	165	1	.00508	.031173	.001411	.00508	.0381	.001411	.000171
GW	166	1	.00635	-.0381	.002205	.00635	-.031173	.002205	.000171
GW	167	1	.00635	-.031173	.002205	.00635	-.024245	.002205	.000171
GW	168	1	.00635	-.024245	.002205	.00635	-.017318	.002205	.000171
GW	169	1	.00635	-.017318	.002205	.00635	-.010391	.002205	.000171
GW	170	1	.00635	-.010391	.002205	.00635	-.003464	.002205	.000171
GW	171	1	.00635	-.003464	.002205	.00635	.003464	.002205	.000171
GW	172	1	.00635	.003464	.002205	.00635	.010391	.002205	.000171
GW	173	1	.00635	.010391	.002205	.00635	.017318	.002205	.000171
GW	174	1	.00635	.017318	.002205	.00635	.024245	.002205	.000171
GW	175	1	.00635	.024245	.002205	.00635	.031173	.002205	.000171
GW	176	1	.00635	.031173	.002205	.00635	.0381	.002205	.000171
GW	177	1	.00762	-.0381	.003175	.00762	-.031173	.003175	.000171
GW	178	1	.00762	-.031173	.003175	.00762	-.024245	.003175	.000171
GW	179	1	.00762	-.024245	.003175	.00762	-.017318	.003175	.000171
GW	180	1	.00762	-.017318	.003175	.00762	-.010391	.003175	.000171
GW	181	1	.00762	-.010391	.003175	.00762	-.003464	.003175	.000171
GW	182	1	.00762	-.003464	.003175	.00762	.003464	.003175	.000171
GW	183	1	.00762	.003464	.003175	.00762	.010391	.003175	.000171
GW	184	1	.00762	.010391	.003175	.00762	.017318	.003175	.000171
GW	185	1	.00762	.017318	.003175	.00762	.024245	.003175	.000171
GW	186	1	.00762	.024245	.003175	.00762	.031173	.003175	.000171
GW	187	1	.00762	.031173	.003175	.00762	.0381	.003175	.000171
GW	188	1	.00889	-.0381	.004322	.00889	-.031173	.004322	.000171
GW	189	1	.00889	-.031173	.004322	.00889	-.024245	.004322	.000171
GW	190	1	.00889	-.024245	.004322	.00889	-.017318	.004322	.000171
GW	191	1	.00889	-.017318	.004322	.00889	-.010391	.004322	.000171
GW	192	1	.00889	-.010391	.004322	.00889	-.003464	.004322	.000171
GW	193	1	.00889	-.003464	.004322	.00889	.003464	.004322	.000171
GW	194	1	.00889	.003464	.004322	.00889	.010391	.004322	.000171
GW	195	1	.00889	.010391	.004322	.00889	.017318	.004322	.000171
GW	196	1	.00889	.017318	.004322	.00889	.024245	.004322	.000171
GW	197	1	.00889	.024245	.004322	.00889	.031173	.004322	.000171
GW	198	1	.00889	.031173	.004322	.00889	.0381	.004322	.000171
GW	199	1	.01016	-.0381	.005644	.01016	-.031173	.005644	.000171
GW	200	1	.01016	-.031173	.005644	.01016	-.024245	.005644	.000171
GW	201	1	.01016	-.024245	.005644	.01016	-.017318	.005644	.000171
GW	202	1	.01016	-.017318	.005644	.01016	-.010391	.005644	.000171
GW	203	1	.01016	-.010391	.005644	.01016	-.003464	.005644	.000171
GW	204	1	.01016	-.003464	.005644	.01016	.003464	.005644	.000171
GW	205	1	.01016	.003464	.005644	.01016	.010391	.005644	.000171
GW	206	1	.01016	.010391	.005644	.01016	.017318	.005644	.000171
GW	207	1	.01016	.017318	.005644	.01016	.024245	.005644	.000171
GW	208	1	.01016	.024245	.005644	.01016	.031173	.005644	.000171
GW	209	1	.01016	.031173	.005644	.01016	.0381	.005644	.000171
GW	210	1	.01143	-.0381	.007144	.01143	-.031173	.007144	.000171
GW	211	1	.01143	-.031173	.007144	.01143	-.024245	.007144	.000171
GW	212	1	.01143	-.024245	.007144	.01143	-.017318	.007144	.000171
GW	213	1	.01143	-.017318	.007144	.01143	-.010391	.007144	.000171
GW	214	1	.01143	-.010391	.007144	.01143	-.003464	.007144	.000171
GW	215	1	.01143	-.003464	.007144	.01143	.003464	.007144	.000171
GW	216	1	.01143	.003464	.007144	.01143	.010391	.007144	.000171
GW	217	1	.01143	.010391	.007144	.01143	.017318	.007144	.000171
GW	218	1	.01143	.017318	.007144	.01143	.024245	.007144	.000171
GW	219	1	.01143	.024245	.007144	.01143	.031173	.007144	.000171
GW	220	1	.01143	.031173	.007144	.01143	.0381	.007144	.000171
GW	221	1	.0127	-.0381	.008819	.0127	-.031173	.008819	.000171
GW	222	1	.0127	-.031173	.008819	.0127	-.024245	.008819	.000171
GW	223	1	.0127	-.024245	.008819	.0127	-.017318	.008819	.000171
GW	224	1	.0127	-.017318	.008819	.0127	-.010391	.008819	.000171
GW	225	1	.0127	-.010391	.008819	.0127	-.003464	.008819	.000171
GW	226	1	.0127	-.003464	.008819	.0127	.003464	.008819	.000171
GW	227	1	.0127	.003464	.008819	.0127	.010391	.008819	.000171
GW	228	1	.0127	.010391	.008819	.0127	.017318	.008819	.000171
GW	229	1	.0127	.017318	.008819	.0127	.024245	.008819	.000171
GW	230	1	.0127	.024245	.008819	.0127	.031173	.008819	.000171
GW	231	1	.0127	.031173	.008819	.0127	.0381	.008819	.000171
GW	232	1	-.0127	-.0381	.008819	-.01143	-.0381	.007144	.000171
GW	233	1	-.01143	-.0381	.007144	-.01016	-.0381	.005644	.000171
GW	234	1	-.01016	-.0381	.005644	-.00889	-.0381	.004322	.000171
GW	235	1	-.00889	-.0381	.004322	-.00762	-.0381	.003175	.000171
GW	236	1	-.00762	-.0381	.003175	-.00635	-.0381	.002205	.000171
GW	237	1	-.00635	-.0381	.002205	-.00508	-.0381	.001411	.000171
GW	238	1	-.00508	-.0381	.001411	-.00381	-.0381	.000794	.000171
GW	239	1	-.00381	-.0381	.000794	-.00254	-.0381	.000353	.000171
GW	240	1	-.00254	-.0381	.000353	-.00127	-.0381	.000088	.000171
GW	241	1	-.00127	-.0381	.000088	0	-.0381	0	.000171
GW	242	1	0	-.0381	0	.00127	-.0381	.000088	.000171
GW	243	1	.00127	-.0381	.000088	.00254	-.0381	.000353	.000171
GW	244	1	.00254	-.0381	.000353	.00381	-.0381	.000794	.000171
GW	245	1	.00381	-.0381	.000794	.00508	-.0381	.001411	.000171
GW	246	1	.00508	-.0381	.001411	.00635	-.0381	.002205	.000171
GW	247	1	.00635	-.0381	.002205	.00762	-.0381	.003175	.000171
GW	248	1	.00762	-.0381	.003175	.00889	-.0381	.004322	.000171
GW	249	1	.00889	-.0381	.004322	.01016	-.0381	.005644	.000171
GW	250	1	.01016	-.0381	.005644	.01143	-.0381	.007144	.000171
GW	251	1	.01143	-.0381	.007144	.0127	-.0381	.008819	.000171
GW	252	1	-.0127	-.031173	.008819	-.01143	-.031173	.007144	.000171
GW	253	1	-.01143	-.031173	.007144	-.01016	-.031173	.005644	.000171
GW	254	1	-.01016	-.031173	.005644	-.00889	-.031173	.004322	.000171
GW	255	1	-.00889	-.031173	.004322	-.00762	-.031173	.003175	.000171
GW	256	1	-.00762	-.031173	.003175	-.00635	-.031173	.002205	.000171
GW	257	1	-.00635	-.031173	.002205	-.00508	-.031173	.001411	.000171
GW	258	1	-.00508	-.031173	.001411	-.00381	-.031173	.000794	.000171
GW	259	1	-.00381	-.031173	.000794	-.00254	-.031173	.000353	.000171
GW	260	1	-.00254	-.031173	.000353	-.00127	-.031173	.000088	.000171
GW	261	1	-.00127	-.031173	.000088	0	-.031173	0	.000171
GW	262	1	0	-.031173	0	.00127	-.031173	.000088	.000171
GW	263	1	.00127	-.031173	.000088	.00254	-.031173	.000353	.000171
GW	264	1	.00254	-.031173	.000353	.00381	-.031173	.000794	.000171
GW	265	1	.00381	-.031173	.000794	.00508	-.031173	.001411	.000171
GW	266	1	.00508	-.031173	.001411	.00635	-.031173	.002205	.000171
GW	267	1	.00635	-.031173	.002205	.00762	-.031173	.003175	.000171
GW	268	1	.00762	-.031173	.003175	.00889	-.031173	.004322	.000171
GW	269	1	.00889	-.031173	.004322	.01016	-.031173	.005644	.000171
GW	270	1	.01016	-.031173	.005644	.01143	-.031173	.007144	.000171
GW	271	1	.01143	-.031173	.007144	.0127	-.031173	.008819	.000171
GW	272	1	-.0127	-.024245	.008819	-.01143	-.024245	.007144	.000171
GW	273	1	-.01143	-.024245	.007144	-.01016	-.024245	.005644	.000171
GW	274	1	-.01016	-.024245	.005644	-.00889	-.024245	.004322	.000171
GW	275	1	-.00889	-.024245	.004322	-.00762	-.024245	.003175	.000171
GW	276	1	-.00762	-.024245	.003175	-.00635	-.024245	.002205	.000171
GW	277	1	-.00635	-.024245	.002205	-.00508	-.024245	.001411	.000171
GW	278	1	-.00508	-.024245	.001411	-.00381	-.024245	.000794	.000171
GW	279	1	-.00381	-.024245	.000794	-.00254	-.024245	.000353	.000171
GW	280	1	-.00254	-.024245	.000353	-.00127	-.024245	.000088	.000171
GW	281	1	-.00127	-.024245	.000088	0	-.024245	0	.000171
GW	282	1	0	-.024245	0	.00127	-.024245	.000088	.000171
GW	283	1	.00127	-.024245	.000088	.00254	-.024245	.000353	.000171
GW	284	1	.00254	-.024245	.000353	.00381	-.024245	.000794	.000171
GW	285	1	.00381	-.024245	.000794	.00508	-.024245	.001411	.000171
GW	286	1	.00508	-.024245	.001411	.00635	-.024245	.002205	.000171
GW	287	1	.00635	-.024245	.002205	.00762	-.024245	.003175	.000171
GW	288	1	.00762	-.024245	.003175	.00889	-.024245	.004322	.000171
GW	289	1	.00889	-.024245	.004322	.01016	-.024245	.005644	.000171
GW	290	1	.01016	-.024245	.005644	.01143	-.024245	.007144	.000171
GW	291	1	.01143	-.024245	.007144	.0127	-.024245	.008819	.000171
GW	292	1	-.0127	-.017318	.008819	-.01143	-.017318	.007144	.000171
GW	293	1	-.01143	-.017318	.007144	-.01016	-.017318	.005644	.000171
GW	294	1	-.01016	-.017318	.005644	-.00889	-.017318	.004322	.000171
GW	295	1	-.00889	-.017318	.004322	-.00762	-.017318	.003175	.000171
GW	296	1	-.00762	-.017318	.003175	-.00635	-.017318	.002205	.000171
GW	297	1	-.00635	-.017318	.002205	-.00508	-.017318	.001411	.000171
GW	298	1	-.00508	-.017318	.001411	-.00381	-.017318	.000794	.000171
GW	299	1	-.00381	-.017318	.000794	-.00254	-.017318	.000353	.000171
GW	300	1	-.00254	-.017318	.000353	-.00127	-.017318	.000088	.000171
GW	301	1	-.00127	-.017318	.000088	0	-.017318	0	.000171
GW	302	1	0	-.017318	0	.00127	-.017318	.000088	.000171
GW	303	1	.00127	-.017318	.000088	.00254	-.017318	.000353	.000171
GW	304	1	.00254	-.017318	.000353	.00381	-.017318	.000794	.000171
GW	305	1	.00381	-.017318	.000794	.00508	-.017318	.001411	.000171
GW	306	1	.00508	-.017318	.001411	.00635	-.017318	.002205	.000171
GW	307	1	.00635	-.017318	.002205	.00762	-.017318	.003175	.000171
GW	308	1	.00762	-.017318	.003175	.00889	-.017318	.004322	.000171
GW	309	1	.00889	-.017318	.004322	.01016	-.017318	.005644	.000171
GW	310	1	.01016	-.017318	.005644	.01143	-.017318	.007144	.000171
GW	311	1	.01143	-.017318	.007144	.0127	-.017318	.008819	.000171
GW	312	1	-.0127	-.010391	.008819	-.01143	-.010391	.007144	.000171
GW	313	1	-.01143	-.010391	.007144	-.01016	-.010391	.005644	.000171
GW	314	1	-.01016	-.010391	.005644	-.00889	-.010391	.004322	.000171
GW	315	1	-.00889	-.010391	.004322	-.00762	-.010391	.003175	.000171
GW	316	1	-.00762	-.010391	.003175	-.00635	-.010391	.002205	.000171
GW	317	1	-.00635	-.010391	.002205	-.00508	-.010391	.001411	.000171
GW	318	1	-.00508	-.010391	.001411	-.00381	-.010391	.000794	.000171
GW	319	1	-.00381	-.010391	.000794	-.00254	-.010391	.000353	.000171
GW	320	1	-.00254	-.010391	.000353	-.00127	-.010391	.000088	.000171
GW	321	1	-.00127	-.010391	.000088	0	-.010391	0	.000171
GW	322	1	0	-.010391	0	.00127	-.010391	.000088	.000171
GW	323	1	.00127	-.010391	.000088	.00254	-.010391	.000353	.000171
GW	324	1	.00254	-.010391	.000353	.00381	-.010391	.000794	.000171
GW	325	1	.00381	-.010391	.000794	.00508	-.010391	.001411	.000171
GW	326	1	.00508	-.010391	.001411	.00635	-.010391	.002205	.000171
GW	327	1	.00635	-.010391	.002205	.00762	-.010391	.003175	.000171
GW	328	1	.00762	-.010391	.003175	.00889	-.010391	.004322	.000171
GW	329	1	.00889	-.010391	.004322	.01016	-.010391	.005644	.000171
GW	330	1	.01016	-.010391	.005644	.01143	-.010391	.007144	.000171
GW	331	1	.01143	-.010391	.007144	.0127	-.010391	.008819	.000171
GW	332	1	-.0127	-.003464	.008819	-.01143	-.003464	.007144	.000171
GW	333	1	-.01143	-.003464	.007144	-.01016	-.003464	.005644	.000171
GW	334	1	-.01016	-.003464	.005644	-.00889	-.003464	.004322	.000171
GW	335	1	-.00889	-.003464	.004322	-.00762	-.003464	.003175	.000171
GW	336	1	-.00762	-.003464	.003175	-.00635	-.003464	.002205	.000171
GW	337	1	-.00635	-.003464	.002205	-.00508	-.003464	.001411	.000171
GW	338	1	-.00508	-.003464	.001411	-.00381	-.003464	.000794	.000171
GW	339	1	-.00381	-.003464	.000794	-.00254	-.003464	.000353	.000171
GW	340	1	-.00254	-.003464	.000353	-.00127	-.003464	.000088	.000171
GW	341	1	-.00127	-.003464	.000088	0	-.003464	0	.000171
GW	342	1	0	-.003464	0	.00127	-.003464	.000088	.000171
GW	343	1	.00127	-.003464	.000088	.00254	-.003464	.000353	.000171
GW	344	1	.00254	-.003464	.000353	.00381	-.003464	.000794	.000171
GW	345	1	.00381	-.003464	.000794	.00508	-.003464	.001411	.000171
GW	346	1	.00508	-.003464	.001411	.00635	-.003464	.002205	.000171
GW	347	1	.00635	-.003464	.002205	.00762	-.003464	.003175	.000171
GW	348	1	.00762	-.003464	.003175	.00889	-.003464	.004322	.000171
GW	349	1	.00889	-.003464	.004322	.01016	-.003464	.005644	.000171
GW	350	1	.01016	-.003464	.005644	.01143	-.003464	.007144	.000171
GW	351	1	.01143	-.003464	.007144	.0127	-.003464	.008819	.000171
GW	352	1	-.0127	.003464	.008819	-.01143	.003464	.007144	.000171
GW	353	1	-.01143	.003464	.007144	-.01016	.003464	.005644	.000171
GW	354	1	-.01016	.003464	.005644	-.00889	.003464	.004322	.000171
GW	355	1	-.00889	.003464	.004322	-.00762	.003464	.003175	.000171
GW	356	1	-.00762	.003464	.003175	-.00635	.003464	.002205	.000171
GW	357	1	-.00635	.003464	.002205	-.00508	.003464	.001411	.000171
GW	358	1	-.00508	.003464	.001411	-.00381	.003464	.000794	.000171
GW	359	1	-.00381	.003464	.000794	-.00254	.003464	.000353	.000171
GW	360	1	-.00254	.003464	.000353	-.00127	.003464	.000088	.000171
GW	361	1	-.00127	.003464	.000088	0	.003464	0	.000171
GW	362	1	0	.003464	0	.00127	.003464	.000088	.000171
GW	363	1	.00127	.003464	.000088	.00254	.003464	.000353	.000171
GW	364	1	.00254	.003464	.000353	.00381	.003464	.000794	.000171
GW	365	1	.00381	.003464	.000794	.00508	.003464	.001411	.000171
GW	366	1	.00508	.003464	.001411	.00635	.003464	.002205	.000171
GW	367	1	.00635	.003464	.002205	.00762	.003464	.003175	.000171
GW	368	1	.00762	.003464	.003175	.00889	.003464	.004322	.000171
GW	369	1	.00889	.003464	.004322	.01016	.003464	.005644	.000171
GW	370	1	.01016	.003464	.005644	.01143	.003464	.007144	.000171
GW	371	1	.01143	.003464	.007144	.0127	.003464	.008819	.000171
GW	372	1	-.0127	.010391	.008819	-.01143	.010391	.007144	.000171
GW	373	1	-.01143	.010391	.007144	-.01016	.010391	.005644	.000171
GW	374	1	-.01016	.010391	.005644	-.00889	.010391	.004322	.000171
GW	375	1	-.00889	.010391	.004322	-.00762	.010391	.003175	.000171
GW	376	1	-.00762	.010391	.003175	-.00635	.010391	.002205	.000171
GW	377	1	-.00635	.010391	.002205	-.00508	.010391	.001411	.000171
GW	378	1	-.00508	.010391	.001411	-.00381	.010391	.000794	.000171
GW	379	1	-.00381	.010391	.000794	-.00254	.010391	.000353	.000171
GW	380	1	-.00254	.010391	.000353	-.00127	.010391	.000088	.000171
GW	381	1	-.00127	.010391	.000088	0	.010391	0	.000171
GW	382	1	0	.010391	0	.00127	.010391	.000088	.000171
GW	383	1	.00127	.010391	.000088	.00254	.010391	.000353	.000171
GW	384	1	.00254	.010391	.000353	.00381	.010391	.000794	.000171
GW	385	1	.00381	.010391	.000794	.00508	.010391	.001411	.000171
GW	386	1	.00508	.010391	.001411	.00635	.010391	.002205	.000171
GW	387	1	.00635	.010391	.002205	.00762	.010391	.003175	.000171
GW	388	1	.00762	.010391	.003175	.00889	.010391	.004322	.000171
GW	389	1	.00889	.010391	.004322	.01016	.010391	.005644	.000171
GW	390	1	.01016	.010391	.005644	.01143	.010391	.007144	.000171
GW	391	1	.01143	.010391	.007144	.0127	.010391	.008819	.000171
GW	392	1	-.0127	.017318	.008819	-.01143	.017318	.007144	.000171
GW	393	1	-.01143	.017318	.007144	-.01016	.017318	.005644	.000171
GW	394	1	-.01016	.017318	.005644	-.00889	.017318	.004322	.000171
GW	395	1	-.00889	.017318	.004322	-.00762	.017318	.003175	.000171
GW	396	1	-.00762	.017318	.003175	-.00635	.017318	.002205	.000171
GW	397	1	-.00635	.017318	.002205	-.00508	.017318	.001411	.000171
GW	398	1	-.00508	.017318	.001411	-.00381	.017318	.000794	.000171
GW	399	1	-.00381	.017318	.000794	-.00254	.017318	.000353	.000171
GW	400	1	-.00254	.017318	.000353	-.00127	.017318	.000088	.000171
GW	401	1	-.00127	.017318	.000088	0	.017318	0	.000171
GW	402	1	0	.017318	0	.00127	.017318	.000088	.000171
GW	403	1	.00127	.017318	.000088	.00254	.017318	.000353	.000171
GW	404	1	.00254	.017318	.000353	.00381	.017318	.000794	.000171
GW	405	1	.00381	.017318	.000794	.00508	.017318	.001411	.000171
GW	406	1	.00508	.017318	.001411	.00635	.017318	.002205	.000171
GW	407	1	.00635	.017318	.002205	.00762	.017318	.003175	.000171
GW	408	1	.00762	.017318	.003175	.00889	.017318	.004322	.000171
GW	409	1	.00889	.017318	.004322	.01016	.017318	.005644	.000171
GW	410	1	.01016	.017318	.005644	.01143	.017318	.007144	.000171
GW	411	1	.01143	.017318	.007144	.0127	.017318	.008819	.000171
GW	412	1	-.0127	.024245	.008819	-.01143	.024245	.007144	.000171
GW	413	1	-.01143	.024245	.007144	-.01016	.024245	.005644	.000171
GW	414	1	-.01016	.024245	.005644	-.00889	.024245	.004322	.000171
GW	415	1	-.00889	.024245	.004322	-.00762	.024245	.003175	.000171
GW	416	1	-.00762	.024245	.003175	-.00635	.024245	.002205	.000171
GW	417	1	-.00635	.024245	.002205	-.00508	.024245	.001411	.000171
GW	418	1	-.00508	.024245	.001411	-.00381	.024245	.000794	.000171
GW	419	1	-.00381	.024245	.000794	-.00254	.024245	.000353	.000171
GW	420	1	-.00254	.024245	.000353	-.00127	.024245	.000088	.000171
GW	421	1	-.00127	.024245	.000088	0	.024245	0	.000171
GW	422	1	0	.024245	0	.00127	.024245	.000088	.000171
GW	423	1	.00127	.024245	.000088	.00254	.024245	.000353	.000171
GW	424	1	.00254	.024245	.000353	.00381	.024245	.000794	.000171
GW	425	1	.00381	.024245	.000794	.00508	.024245	.001411	.000171
GW	426	1	.00508	.024245	.001411	.00635	.024245	.002205	.000171
GW	427	1	.00635	.024245	.002205	.00762	.024245	.003175	.000171
GW	428	1	.00762	.024245	.003175	.00889	.024245	.004322	.000171
GW	429	1	.00889	.024245	.004322	.01016	.024245	.005644	.000171
GW	430	1	.01016	.024245	.005644	.01143	.024245	.007144	.000171
GW	431	1	.01143	.024245	.007144	.0127	.024245	.008819	.000171
GW	432	1	-.0127	.031173	.008819	-.01143	.031173	.007144	.000171
GW	433	1	-.01143	.031173	.007144	-.01016	.031173	.005644	.000171
GW	434	1	-.01016	.031173	.005644	-.00889	.031173	.004322	.000171
GW	435	1	-.00889	.031173	.004322	-.00762	.031173	.003175	.000171
GW	436	1	-.00762	.031173	.003175	-.00635	.031173	.002205	.000171
GW	437	1	-.00635	.031173	.002205	-.00508	.031173	.001411	.000171
GW	438	1	-.00508	.031173	.001411	-.00381	.031173	.000794	.000171
GW	439	1	-.00381	.031173	.000794	-.00254	.031173	.000353	.000171
GW	440	1	-.00254	.031173	.000353	-.00127	.031173	.000088	.000171
GW	441	1	-.00127	.031173	.000088	0	.031173	0	.000171
GW	442	1	0	.031173	0	.00127	.031173	.000088	.000171
GW	443	1	.00127	.031173	.000088	.00254	.031173	.000353	.000171
GW	444	1	.00254	.031173	.000353	.00381	.031173	.000794	.000171
GW	445	1	.00381	.031173	.000794	.00508	.031173	.001411	.000171
GW	446	1	.00508	.031173	.001411	.00635	.031173	.002205	.000171
GW	447	1	.00635	.031173	.002205	.00762	.031173	.003175	.000171
GW	448	1	.00762	.031173	.003175	.00889	.031173	.004322	.000171
GW	449	1	.00889	.031173	.004322	.01016	.031173	.005644	.000171
GW	450	1	.01016	.031173	.005644	.01143	.031173	.007144	.000171
GW	451	1	.01143	.031173	.007144	.0127	.031173	.008819	.000171
GW	452	1	-.0127	.0381	.008819	-.01143	.0381	.007144	.000171
GW	453	1	-.01143	.0381	.007144	-.01016	.0381	.005644	.000171
GW	454	1	-.01016	.0381	.005644	-.00889	.0381	.004322	.000171
GW	455	1	-.00889	.0381	.004322	-.00762	.0381	.003175	.000171
GW	456	1	-.00762	.0381	.003175	-.00635	.0381	.002205	.000171
GW	457	1	-.00635	.0381	.002205	-.00508	.0381	.001411	.000171
GW	458	1	-.00508	.0381	.001411	-.00381	.0381	.000794	.000171
GW	459	1	-.00381	.0381	.000794	-.00254	.0381	.000353	.000171
GW	460	1	-.00254	.0381	.000353	-.00127	.0381	.000088	.000171
GW	461	1	-.00127	.0381	.000088	0	.0381	0	.000171
GW	462	1	0	.0381	0	.00127	.0381	.000088	.000171
GW	463	1	.00127	.0381	.000088	.00254	.0381	.000353	.000171
GW	464	1	.00254	.0381	.000353	.00381	.0381	.000794	.000171
GW	465	1	.00381	.0381	.000794	.00508	.0381	.001411	.000171
GW	466	1	.00508	.0381	.001411	.00635	.0381	.002205	.000171
GW	467	1	.00635	.0381	.002205	.00762	.0381	.003175	.000171
GW	468	1	.00762	.0381	.003175	.00889	.0381	.004322	.000171
GW	469	1	.00889	.0381	.004322	.01016	.0381	.005644	.000171
GW	470	1	.01016	.0381	.005644	.01143	.0381	.007144	.000171
GW	471	1	.01143	.0381	.007144	.0127	.0381	.008819	.000171
GM	1-471	0	0	0	0	0	0.041275
GM	1-471	1	0	0	0	0	0.079375
GE	0
LD	5	0	0	0	1390000

GN	-1
EK
EX	0	-829	0	0	0.999896	0.014451	0	0
EX	0	-349	0	0	-0.9999	0.014486	0	0



