CM Length X = 0.0254
CM Y = 0.1524
CM Focus pnt = 0.0127
CM X sections = 20
CM Y sections = 11
CM Rotate X, Y, Z = 0, 0, 0
CM Move X, Y, Z = 0, 0, 0
CE
GW     1    1   -.0127   -.0762  .003175   -.0127 -.062345  .003175     .005
GW     2    1   -.0127 -.062345  .003175   -.0127 -.048491  .003175     .005
GW     3    1   -.0127 -.048491  .003175   -.0127 -.034636  .003175     .005
GW     4    1   -.0127 -.034636  .003175   -.0127 -.020782  .003175     .005
GW     5    1   -.0127 -.020782  .003175   -.0127 -.006927  .003175     .005
GW     6    1   -.0127 -.006927  .003175   -.0127  .006927  .003175     .005
GW     7    1   -.0127  .006927  .003175   -.0127  .020782  .003175     .005
GW     8    1   -.0127  .020782  .003175   -.0127  .034636  .003175     .005
GW     9    1   -.0127  .034636  .003175   -.0127  .048491  .003175     .005
GW    10    1   -.0127  .048491  .003175   -.0127  .062345  .003175     .005
GW    11    1   -.0127  .062345  .003175   -.0127    .0762  .003175     .005
GW    12    1  -.01143   -.0762  .002572  -.01143 -.062345  .002572     .005
GW    13    1  -.01143 -.062345  .002572  -.01143 -.048491  .002572     .005
GW    14    1  -.01143 -.048491  .002572  -.01143 -.034636  .002572     .005
GW    15    1  -.01143 -.034636  .002572  -.01143 -.020782  .002572     .005
GW    16    1  -.01143 -.020782  .002572  -.01143 -.006927  .002572     .005
GW    17    1  -.01143 -.006927  .002572  -.01143  .006927  .002572     .005
GW    18    1  -.01143  .006927  .002572  -.01143  .020782  .002572     .005
GW    19    1  -.01143  .020782  .002572  -.01143  .034636  .002572     .005
GW    20    1  -.01143  .034636  .002572  -.01143  .048491  .002572     .005
GW    21    1  -.01143  .048491  .002572  -.01143  .062345  .002572     .005
GW    22    1  -.01143  .062345  .002572  -.01143    .0762  .002572     .005
GW    23    1  -.01016   -.0762  .002032  -.01016 -.062345  .002032     .005
GW    24    1  -.01016 -.062345  .002032  -.01016 -.048491  .002032     .005
GW    25    1  -.01016 -.048491  .002032  -.01016 -.034636  .002032     .005
GW    26    1  -.01016 -.034636  .002032  -.01016 -.020782  .002032     .005
GW    27    1  -.01016 -.020782  .002032  -.01016 -.006927  .002032     .005
GW    28    1  -.01016 -.006927  .002032  -.01016  .006927  .002032     .005
GW    29    1  -.01016  .006927  .002032  -.01016  .020782  .002032     .005
GW    30    1  -.01016  .020782  .002032  -.01016  .034636  .002032     .005
GW    31    1  -.01016  .034636  .002032  -.01016  .048491  .002032     .005
GW    32    1  -.01016  .048491  .002032  -.01016  .062345  .002032     .005
GW    33    1  -.01016  .062345  .002032  -.01016    .0762  .002032     .005
GW    34    1  -.00889   -.0762  .001556  -.00889 -.062345  .001556     .005
GW    35    1  -.00889 -.062345  .001556  -.00889 -.048491  .001556     .005
GW    36    1  -.00889 -.048491  .001556  -.00889 -.034636  .001556     .005
GW    37    1  -.00889 -.034636  .001556  -.00889 -.020782  .001556     .005
GW    38    1  -.00889 -.020782  .001556  -.00889 -.006927  .001556     .005
GW    39    1  -.00889 -.006927  .001556  -.00889  .006927  .001556     .005
GW    40    1  -.00889  .006927  .001556  -.00889  .020782  .001556     .005
GW    41    1  -.00889  .020782  .001556  -.00889  .034636  .001556     .005
GW    42    1  -.00889  .034636  .001556  -.00889  .048491  .001556     .005
GW    43    1  -.00889  .048491  .001556  -.00889  .062345  .001556     .005
GW    44    1  -.00889  .062345  .001556  -.00889    .0762  .001556     .005
GW    45    1  -.00762   -.0762  .001143  -.00762 -.062345  .001143     .005
GW    46    1  -.00762 -.062345  .001143  -.00762 -.048491  .001143     .005
GW    47    1  -.00762 -.048491  .001143  -.00762 -.034636  .001143     .005
GW    48    1  -.00762 -.034636  .001143  -.00762 -.020782  .001143     .005
GW    49    1  -.00762 -.020782  .001143  -.00762 -.006927  .001143     .005
GW    50    1  -.00762 -.006927  .001143  -.00762  .006927  .001143     .005
GW    51    1  -.00762  .006927  .001143  -.00762  .020782  .001143     .005
GW    52    1  -.00762  .020782  .001143  -.00762  .034636  .001143     .005
GW    53    1  -.00762  .034636  .001143  -.00762  .048491  .001143     .005
GW    54    1  -.00762  .048491  .001143  -.00762  .062345  .001143     .005
GW    55    1  -.00762  .062345  .001143  -.00762    .0762  .001143     .005
GW    56    1  -.00635   -.0762  .000794  -.00635 -.062345  .000794     .005
GW    57    1  -.00635 -.062345  .000794  -.00635 -.048491  .000794     .005
GW    58    1  -.00635 -.048491  .000794  -.00635 -.034636  .000794     .005
GW    59    1  -.00635 -.034636  .000794  -.00635 -.020782  .000794     .005
GW    60    1  -.00635 -.020782  .000794  -.00635 -.006927  .000794     .005
GW    61    1  -.00635 -.006927  .000794  -.00635  .006927  .000794     .005
GW    62    1  -.00635  .006927  .000794  -.00635  .020782  .000794     .005
GW    63    1  -.00635  .020782  .000794  -.00635  .034636  .000794     .005
GW    64    1  -.00635  .034636  .000794  -.00635  .048491  .000794     .005
GW    65    1  -.00635  .048491  .000794  -.00635  .062345  .000794     .005
GW    66    1  -.00635  .062345  .000794  -.00635    .0762  .000794     .005
GW    67    1  -.00508   -.0762  .000508  -.00508 -.062345  .000508     .005
GW    68    1  -.00508 -.062345  .000508  -.00508 -.048491  .000508     .005
GW    69    1  -.00508 -.048491  .000508  -.00508 -.034636  .000508     .005
GW    70    1  -.00508 -.034636  .000508  -.00508 -.020782  .000508     .005
GW    71    1  -.00508 -.020782  .000508  -.00508 -.006927  .000508     .005
GW    72    1  -.00508 -.006927  .000508  -.00508  .006927  .000508     .005
GW    73    1  -.00508  .006927  .000508  -.00508  .020782  .000508     .005
GW    74    1  -.00508  .020782  .000508  -.00508  .034636  .000508     .005
GW    75    1  -.00508  .034636  .000508  -.00508  .048491  .000508     .005
GW    76    1  -.00508  .048491  .000508  -.00508  .062345  .000508     .005
GW    77    1  -.00508  .062345  .000508  -.00508    .0762  .000508     .005
GW    78    1  -.00381   -.0762  .000286  -.00381 -.062345  .000286     .005
GW    79    1  -.00381 -.062345  .000286  -.00381 -.048491  .000286     .005
GW    80    1  -.00381 -.048491  .000286  -.00381 -.034636  .000286     .005
GW    81    1  -.00381 -.034636  .000286  -.00381 -.020782  .000286     .005
GW    82    1  -.00381 -.020782  .000286  -.00381 -.006927  .000286     .005
GW    83    1  -.00381 -.006927  .000286  -.00381  .006927  .000286     .005
GW    84    1  -.00381  .006927  .000286  -.00381  .020782  .000286     .005
GW    85    1  -.00381  .020782  .000286  -.00381  .034636  .000286     .005
GW    86    1  -.00381  .034636  .000286  -.00381  .048491  .000286     .005
GW    87    1  -.00381  .048491  .000286  -.00381  .062345  .000286     .005
GW    88    1  -.00381  .062345  .000286  -.00381    .0762  .000286     .005
GW    89    1  -.00254   -.0762  .000127  -.00254 -.062345  .000127     .005
GW    90    1  -.00254 -.062345  .000127  -.00254 -.048491  .000127     .005
GW    91    1  -.00254 -.048491  .000127  -.00254 -.034636  .000127     .005
GW    92    1  -.00254 -.034636  .000127  -.00254 -.020782  .000127     .005
GW    93    1  -.00254 -.020782  .000127  -.00254 -.006927  .000127     .005
GW    94    1  -.00254 -.006927  .000127  -.00254  .006927  .000127     .005
GW    95    1  -.00254  .006927  .000127  -.00254  .020782  .000127     .005
GW    96    1  -.00254  .020782  .000127  -.00254  .034636  .000127     .005
GW    97    1  -.00254  .034636  .000127  -.00254  .048491  .000127     .005
GW    98    1  -.00254  .048491  .000127  -.00254  .062345  .000127     .005
GW    99    1  -.00254  .062345  .000127  -.00254    .0762  .000127     .005
GW   100    1  -.00127   -.0762  .000032  -.00127 -.062345  .000032     .005
GW   101    1  -.00127 -.062345  .000032  -.00127 -.048491  .000032     .005
GW   102    1  -.00127 -.048491  .000032  -.00127 -.034636  .000032     .005
GW   103    1  -.00127 -.034636  .000032  -.00127 -.020782  .000032     .005
GW   104    1  -.00127 -.020782  .000032  -.00127 -.006927  .000032     .005
GW   105    1  -.00127 -.006927  .000032  -.00127  .006927  .000032     .005
GW   106    1  -.00127  .006927  .000032  -.00127  .020782  .000032     .005
GW   107    1  -.00127  .020782  .000032  -.00127  .034636  .000032     .005
GW   108    1  -.00127  .034636  .000032  -.00127  .048491  .000032     .005
GW   109    1  -.00127  .048491  .000032  -.00127  .062345  .000032     .005
GW   110    1  -.00127  .062345  .000032  -.00127    .0762  .000032     .005
GW   111    1       .0   -.0762       .0       .0 -.062345       .0     .005
GW   112    1       .0 -.062345       .0       .0 -.048491       .0     .005
GW   113    1       .0 -.048491       .0       .0 -.034636       .0     .005
GW   114    1       .0 -.034636       .0       .0 -.020782       .0     .005
GW   115    1       .0 -.020782       .0       .0 -.006927       .0     .005
GW   116    1       .0 -.006927       .0       .0  .006927       .0     .005
GW   117    1       .0  .006927       .0       .0  .020782       .0     .005
GW   118    1       .0  .020782       .0       .0  .034636       .0     .005
GW   119    1       .0  .034636       .0       .0  .048491       .0     .005
GW   120    1       .0  .048491       .0       .0  .062345       .0     .005
GW   121    1       .0  .062345       .0       .0    .0762       .0     .005
GW   122    1   .00127   -.0762  .000032   .00127 -.062345  .000032     .005
GW   123    1   .00127 -.062345  .000032   .00127 -.048491  .000032     .005
GW   124    1   .00127 -.048491  .000032   .00127 -.034636  .000032     .005
GW   125    1   .00127 -.034636  .000032   .00127 -.020782  .000032     .005
GW   126    1   .00127 -.020782  .000032   .00127 -.006927  .000032     .005
GW   127    1   .00127 -.006927  .000032   .00127  .006927  .000032     .005
GW   128    1   .00127  .006927  .000032   .00127  .020782  .000032     .005
GW   129    1   .00127  .020782  .000032   .00127  .034636  .000032     .005
GW   130    1   .00127  .034636  .000032   .00127  .048491  .000032     .005
GW   131    1   .00127  .048491  .000032   .00127  .062345  .000032     .005
GW   132    1   .00127  .062345  .000032   .00127    .0762  .000032     .005
GW   133    1   .00254   -.0762  .000127   .00254 -.062345  .000127     .005
GW   134    1   .00254 -.062345  .000127   .00254 -.048491  .000127     .005
GW   135    1   .00254 -.048491  .000127   .00254 -.034636  .000127     .005
GW   136    1   .00254 -.034636  .000127   .00254 -.020782  .000127     .005
GW   137    1   .00254 -.020782  .000127   .00254 -.006927  .000127     .005
GW   138    1   .00254 -.006927  .000127   .00254  .006927  .000127     .005
GW   139    1   .00254  .006927  .000127   .00254  .020782  .000127     .005
GW   140    1   .00254  .020782  .000127   .00254  .034636  .000127     .005
GW   141    1   .00254  .034636  .000127   .00254  .048491  .000127     .005
GW   142    1   .00254  .048491  .000127   .00254  .062345  .000127     .005
GW   143    1   .00254  .062345  .000127   .00254    .0762  .000127     .005
GW   144    1   .00381   -.0762  .000286   .00381 -.062345  .000286     .005
GW   145    1   .00381 -.062345  .000286   .00381 -.048491  .000286     .005
GW   146    1   .00381 -.048491  .000286   .00381 -.034636  .000286     .005
GW   147    1   .00381 -.034636  .000286   .00381 -.020782  .000286     .005
GW   148    1   .00381 -.020782  .000286   .00381 -.006927  .000286     .005
GW   149    1   .00381 -.006927  .000286   .00381  .006927  .000286     .005
GW   150    1   .00381  .006927  .000286   .00381  .020782  .000286     .005
GW   151    1   .00381  .020782  .000286   .00381  .034636  .000286     .005
GW   152    1   .00381  .034636  .000286   .00381  .048491  .000286     .005
GW   153    1   .00381  .048491  .000286   .00381  .062345  .000286     .005
GW   154    1   .00381  .062345  .000286   .00381    .0762  .000286     .005
GW   155    1   .00508   -.0762  .000508   .00508 -.062345  .000508     .005
GW   156    1   .00508 -.062345  .000508   .00508 -.048491  .000508     .005
GW   157    1   .00508 -.048491  .000508   .00508 -.034636  .000508     .005
GW   158    1   .00508 -.034636  .000508   .00508 -.020782  .000508     .005
GW   159    1   .00508 -.020782  .000508   .00508 -.006927  .000508     .005
GW   160    1   .00508 -.006927  .000508   .00508  .006927  .000508     .005
GW   161    1   .00508  .006927  .000508   .00508  .020782  .000508     .005
GW   162    1   .00508  .020782  .000508   .00508  .034636  .000508     .005
GW   163    1   .00508  .034636  .000508   .00508  .048491  .000508     .005
GW   164    1   .00508  .048491  .000508   .00508  .062345  .000508     .005
GW   165    1   .00508  .062345  .000508   .00508    .0762  .000508     .005
GW   166    1   .00635   -.0762  .000794   .00635 -.062345  .000794     .005
GW   167    1   .00635 -.062345  .000794   .00635 -.048491  .000794     .005
GW   168    1   .00635 -.048491  .000794   .00635 -.034636  .000794     .005
GW   169    1   .00635 -.034636  .000794   .00635 -.020782  .000794     .005
GW   170    1   .00635 -.020782  .000794   .00635 -.006927  .000794     .005
GW   171    1   .00635 -.006927  .000794   .00635  .006927  .000794     .005
GW   172    1   .00635  .006927  .000794   .00635  .020782  .000794     .005
GW   173    1   .00635  .020782  .000794   .00635  .034636  .000794     .005
GW   174    1   .00635  .034636  .000794   .00635  .048491  .000794     .005
GW   175    1   .00635  .048491  .000794   .00635  .062345  .000794     .005
GW   176    1   .00635  .062345  .000794   .00635    .0762  .000794     .005
GW   177    1   .00762   -.0762  .001143   .00762 -.062345  .001143     .005
GW   178    1   .00762 -.062345  .001143   .00762 -.048491  .001143     .005
GW   179    1   .00762 -.048491  .001143   .00762 -.034636  .001143     .005
GW   180    1   .00762 -.034636  .001143   .00762 -.020782  .001143     .005
GW   181    1   .00762 -.020782  .001143   .00762 -.006927  .001143     .005
GW   182    1   .00762 -.006927  .001143   .00762  .006927  .001143     .005
GW   183    1   .00762  .006927  .001143   .00762  .020782  .001143     .005
GW   184    1   .00762  .020782  .001143   .00762  .034636  .001143     .005
GW   185    1   .00762  .034636  .001143   .00762  .048491  .001143     .005
GW   186    1   .00762  .048491  .001143   .00762  .062345  .001143     .005
GW   187    1   .00762  .062345  .001143   .00762    .0762  .001143     .005
GW   188    1   .00889   -.0762  .001556   .00889 -.062345  .001556     .005
GW   189    1   .00889 -.062345  .001556   .00889 -.048491  .001556     .005
GW   190    1   .00889 -.048491  .001556   .00889 -.034636  .001556     .005
GW   191    1   .00889 -.034636  .001556   .00889 -.020782  .001556     .005
GW   192    1   .00889 -.020782  .001556   .00889 -.006927  .001556     .005
GW   193    1   .00889 -.006927  .001556   .00889  .006927  .001556     .005
GW   194    1   .00889  .006927  .001556   .00889  .020782  .001556     .005
GW   195    1   .00889  .020782  .001556   .00889  .034636  .001556     .005
GW   196    1   .00889  .034636  .001556   .00889  .048491  .001556     .005
GW   197    1   .00889  .048491  .001556   .00889  .062345  .001556     .005
GW   198    1   .00889  .062345  .001556   .00889    .0762  .001556     .005
GW   199    1   .01016   -.0762  .002032   .01016 -.062345  .002032     .005
GW   200    1   .01016 -.062345  .002032   .01016 -.048491  .002032     .005
GW   201    1   .01016 -.048491  .002032   .01016 -.034636  .002032     .005
GW   202    1   .01016 -.034636  .002032   .01016 -.020782  .002032     .005
GW   203    1   .01016 -.020782  .002032   .01016 -.006927  .002032     .005
GW   204    1   .01016 -.006927  .002032   .01016  .006927  .002032     .005
GW   205    1   .01016  .006927  .002032   .01016  .020782  .002032     .005
GW   206    1   .01016  .020782  .002032   .01016  .034636  .002032     .005
GW   207    1   .01016  .034636  .002032   .01016  .048491  .002032     .005
GW   208    1   .01016  .048491  .002032   .01016  .062345  .002032     .005
GW   209    1   .01016  .062345  .002032   .01016    .0762  .002032     .005
GW   210    1   .01143   -.0762  .002572   .01143 -.062345  .002572     .005
GW   211    1   .01143 -.062345  .002572   .01143 -.048491  .002572     .005
GW   212    1   .01143 -.048491  .002572   .01143 -.034636  .002572     .005
GW   213    1   .01143 -.034636  .002572   .01143 -.020782  .002572     .005
GW   214    1   .01143 -.020782  .002572   .01143 -.006927  .002572     .005
GW   215    1   .01143 -.006927  .002572   .01143  .006927  .002572     .005
GW   216    1   .01143  .006927  .002572   .01143  .020782  .002572     .005
GW   217    1   .01143  .020782  .002572   .01143  .034636  .002572     .005
GW   218    1   .01143  .034636  .002572   .01143  .048491  .002572     .005
GW   219    1   .01143  .048491  .002572   .01143  .062345  .002572     .005
GW   220    1   .01143  .062345  .002572   .01143    .0762  .002572     .005
GW   221    1    .0127   -.0762  .003175    .0127 -.062345  .003175     .005
GW   222    1    .0127 -.062345  .003175    .0127 -.048491  .003175     .005
GW   223    1    .0127 -.048491  .003175    .0127 -.034636  .003175     .005
GW   224    1    .0127 -.034636  .003175    .0127 -.020782  .003175     .005
GW   225    1    .0127 -.020782  .003175    .0127 -.006927  .003175     .005
GW   226    1    .0127 -.006927  .003175    .0127  .006927  .003175     .005
GW   227    1    .0127  .006927  .003175    .0127  .020782  .003175     .005
GW   228    1    .0127  .020782  .003175    .0127  .034636  .003175     .005
GW   229    1    .0127  .034636  .003175    .0127  .048491  .003175     .005
GW   230    1    .0127  .048491  .003175    .0127  .062345  .003175     .005
GW   231    1    .0127  .062345  .003175    .0127    .0762  .003175     .005
GW   232    1   -.0127   -.0762  .003175  -.01143   -.0762  .002572     .005
GW   233    1  -.01143   -.0762  .002572  -.01016   -.0762  .002032     .005
GW   234    1  -.01016   -.0762  .002032  -.00889   -.0762  .001556     .005
GW   235    1  -.00889   -.0762  .001556  -.00762   -.0762  .001143     .005
GW   236    1  -.00762   -.0762  .001143  -.00635   -.0762  .000794     .005
GW   237    1  -.00635   -.0762  .000794  -.00508   -.0762  .000508     .005
GW   238    1  -.00508   -.0762  .000508  -.00381   -.0762  .000286     .005
GW   239    1  -.00381   -.0762  .000286  -.00254   -.0762  .000127     .005
GW   240    1  -.00254   -.0762  .000127  -.00127   -.0762  .000032     .005
GW   241    1  -.00127   -.0762  .000032       .0   -.0762       .0     .005
GW   242    1       .0   -.0762       .0   .00127   -.0762  .000032     .005
GW   243    1   .00127   -.0762  .000032   .00254   -.0762  .000127     .005
GW   244    1   .00254   -.0762  .000127   .00381   -.0762  .000286     .005
GW   245    1   .00381   -.0762  .000286   .00508   -.0762  .000508     .005
GW   246    1   .00508   -.0762  .000508   .00635   -.0762  .000794     .005
GW   247    1   .00635   -.0762  .000794   .00762   -.0762  .001143     .005
GW   248    1   .00762   -.0762  .001143   .00889   -.0762  .001556     .005
GW   249    1   .00889   -.0762  .001556   .01016   -.0762  .002032     .005
GW   250    1   .01016   -.0762  .002032   .01143   -.0762  .002572     .005
GW   251    1   .01143   -.0762  .002572    .0127   -.0762  .003175     .005
GW   252    1   -.0127 -.062345  .003175  -.01143 -.062345  .002572     .005
GW   253    1  -.01143 -.062345  .002572  -.01016 -.062345  .002032     .005
GW   254    1  -.01016 -.062345  .002032  -.00889 -.062345  .001556     .005
GW   255    1  -.00889 -.062345  .001556  -.00762 -.062345  .001143     .005
GW   256    1  -.00762 -.062345  .001143  -.00635 -.062345  .000794     .005
GW   257    1  -.00635 -.062345  .000794  -.00508 -.062345  .000508     .005
GW   258    1  -.00508 -.062345  .000508  -.00381 -.062345  .000286     .005
GW   259    1  -.00381 -.062345  .000286  -.00254 -.062345  .000127     .005
GW   260    1  -.00254 -.062345  .000127  -.00127 -.062345  .000032     .005
GW   261    1  -.00127 -.062345  .000032       .0 -.062345       .0     .005
GW   262    1       .0 -.062345       .0   .00127 -.062345  .000032     .005
GW   263    1   .00127 -.062345  .000032   .00254 -.062345  .000127     .005
GW   264    1   .00254 -.062345  .000127   .00381 -.062345  .000286     .005
GW   265    1   .00381 -.062345  .000286   .00508 -.062345  .000508     .005
GW   266    1   .00508 -.062345  .000508   .00635 -.062345  .000794     .005
GW   267    1   .00635 -.062345  .000794   .00762 -.062345  .001143     .005
GW   268    1   .00762 -.062345  .001143   .00889 -.062345  .001556     .005
GW   269    1   .00889 -.062345  .001556   .01016 -.062345  .002032     .005
GW   270    1   .01016 -.062345  .002032   .01143 -.062345  .002572     .005
GW   271    1   .01143 -.062345  .002572    .0127 -.062345  .003175     .005
GW   272    1   -.0127 -.048491  .003175  -.01143 -.048491  .002572     .005
GW   273    1  -.01143 -.048491  .002572  -.01016 -.048491  .002032     .005
GW   274    1  -.01016 -.048491  .002032  -.00889 -.048491  .001556     .005
GW   275    1  -.00889 -.048491  .001556  -.00762 -.048491  .001143     .005
GW   276    1  -.00762 -.048491  .001143  -.00635 -.048491  .000794     .005
GW   277    1  -.00635 -.048491  .000794  -.00508 -.048491  .000508     .005
GW   278    1  -.00508 -.048491  .000508  -.00381 -.048491  .000286     .005
GW   279    1  -.00381 -.048491  .000286  -.00254 -.048491  .000127     .005
GW   280    1  -.00254 -.048491  .000127  -.00127 -.048491  .000032     .005
GW   281    1  -.00127 -.048491  .000032       .0 -.048491       .0     .005
GW   282    1       .0 -.048491       .0   .00127 -.048491  .000032     .005
GW   283    1   .00127 -.048491  .000032   .00254 -.048491  .000127     .005
GW   284    1   .00254 -.048491  .000127   .00381 -.048491  .000286     .005
GW   285    1   .00381 -.048491  .000286   .00508 -.048491  .000508     .005
GW   286    1   .00508 -.048491  .000508   .00635 -.048491  .000794     .005
GW   287    1   .00635 -.048491  .000794   .00762 -.048491  .001143     .005
GW   288    1   .00762 -.048491  .001143   .00889 -.048491  .001556     .005
GW   289    1   .00889 -.048491  .001556   .01016 -.048491  .002032     .005
GW   290    1   .01016 -.048491  .002032   .01143 -.048491  .002572     .005
GW   291    1   .01143 -.048491  .002572    .0127 -.048491  .003175     .005
GW   292    1   -.0127 -.034636  .003175  -.01143 -.034636  .002572     .005
GW   293    1  -.01143 -.034636  .002572  -.01016 -.034636  .002032     .005
GW   294    1  -.01016 -.034636  .002032  -.00889 -.034636  .001556     .005
GW   295    1  -.00889 -.034636  .001556  -.00762 -.034636  .001143     .005
GW   296    1  -.00762 -.034636  .001143  -.00635 -.034636  .000794     .005
GW   297    1  -.00635 -.034636  .000794  -.00508 -.034636  .000508     .005
GW   298    1  -.00508 -.034636  .000508  -.00381 -.034636  .000286     .005
GW   299    1  -.00381 -.034636  .000286  -.00254 -.034636  .000127     .005
GW   300    1  -.00254 -.034636  .000127  -.00127 -.034636  .000032     .005
GW   301    1  -.00127 -.034636  .000032       .0 -.034636       .0     .005
GW   302    1       .0 -.034636       .0   .00127 -.034636  .000032     .005
GW   303    1   .00127 -.034636  .000032   .00254 -.034636  .000127     .005
GW   304    1   .00254 -.034636  .000127   .00381 -.034636  .000286     .005
GW   305    1   .00381 -.034636  .000286   .00508 -.034636  .000508     .005
GW   306    1   .00508 -.034636  .000508   .00635 -.034636  .000794     .005
GW   307    1   .00635 -.034636  .000794   .00762 -.034636  .001143     .005
GW   308    1   .00762 -.034636  .001143   .00889 -.034636  .001556     .005
GW   309    1   .00889 -.034636  .001556   .01016 -.034636  .002032     .005
GW   310    1   .01016 -.034636  .002032   .01143 -.034636  .002572     .005
GW   311    1   .01143 -.034636  .002572    .0127 -.034636  .003175     .005
GW   312    1   -.0127 -.020782  .003175  -.01143 -.020782  .002572     .005
GW   313    1  -.01143 -.020782  .002572  -.01016 -.020782  .002032     .005
GW   314    1  -.01016 -.020782  .002032  -.00889 -.020782  .001556     .005
GW   315    1  -.00889 -.020782  .001556  -.00762 -.020782  .001143     .005
GW   316    1  -.00762 -.020782  .001143  -.00635 -.020782  .000794     .005
GW   317    1  -.00635 -.020782  .000794  -.00508 -.020782  .000508     .005
GW   318    1  -.00508 -.020782  .000508  -.00381 -.020782  .000286     .005
GW   319    1  -.00381 -.020782  .000286  -.00254 -.020782  .000127     .005
GW   320    1  -.00254 -.020782  .000127  -.00127 -.020782  .000032     .005
GW   321    1  -.00127 -.020782  .000032       .0 -.020782       .0     .005
GW   322    1       .0 -.020782       .0   .00127 -.020782  .000032     .005
GW   323    1   .00127 -.020782  .000032   .00254 -.020782  .000127     .005
GW   324    1   .00254 -.020782  .000127   .00381 -.020782  .000286     .005
GW   325    1   .00381 -.020782  .000286   .00508 -.020782  .000508     .005
GW   326    1   .00508 -.020782  .000508   .00635 -.020782  .000794     .005
GW   327    1   .00635 -.020782  .000794   .00762 -.020782  .001143     .005
GW   328    1   .00762 -.020782  .001143   .00889 -.020782  .001556     .005
GW   329    1   .00889 -.020782  .001556   .01016 -.020782  .002032     .005
GW   330    1   .01016 -.020782  .002032   .01143 -.020782  .002572     .005
GW   331    1   .01143 -.020782  .002572    .0127 -.020782  .003175     .005
GW   332    1   -.0127 -.006927  .003175  -.01143 -.006927  .002572     .005
GW   333    1  -.01143 -.006927  .002572  -.01016 -.006927  .002032     .005
GW   334    1  -.01016 -.006927  .002032  -.00889 -.006927  .001556     .005
GW   335    1  -.00889 -.006927  .001556  -.00762 -.006927  .001143     .005
GW   336    1  -.00762 -.006927  .001143  -.00635 -.006927  .000794     .005
GW   337    1  -.00635 -.006927  .000794  -.00508 -.006927  .000508     .005
GW   338    1  -.00508 -.006927  .000508  -.00381 -.006927  .000286     .005
GW   339    1  -.00381 -.006927  .000286  -.00254 -.006927  .000127     .005
GW   340    1  -.00254 -.006927  .000127  -.00127 -.006927  .000032     .005
GW   341    1  -.00127 -.006927  .000032       .0 -.006927       .0     .005
GW   342    1       .0 -.006927       .0   .00127 -.006927  .000032     .005
GW   343    1   .00127 -.006927  .000032   .00254 -.006927  .000127     .005
GW   344    1   .00254 -.006927  .000127   .00381 -.006927  .000286     .005
GW   345    1   .00381 -.006927  .000286   .00508 -.006927  .000508     .005
GW   346    1   .00508 -.006927  .000508   .00635 -.006927  .000794     .005
GW   347    1   .00635 -.006927  .000794   .00762 -.006927  .001143     .005
GW   348    1   .00762 -.006927  .001143   .00889 -.006927  .001556     .005
GW   349    1   .00889 -.006927  .001556   .01016 -.006927  .002032     .005
GW   350    1   .01016 -.006927  .002032   .01143 -.006927  .002572     .005
GW   351    1   .01143 -.006927  .002572    .0127 -.006927  .003175     .005
GW   352    1   -.0127  .006927  .003175  -.01143  .006927  .002572     .005
GW   353    1  -.01143  .006927  .002572  -.01016  .006927  .002032     .005
GW   354    1  -.01016  .006927  .002032  -.00889  .006927  .001556     .005
GW   355    1  -.00889  .006927  .001556  -.00762  .006927  .001143     .005
GW   356    1  -.00762  .006927  .001143  -.00635  .006927  .000794     .005
GW   357    1  -.00635  .006927  .000794  -.00508  .006927  .000508     .005
GW   358    1  -.00508  .006927  .000508  -.00381  .006927  .000286     .005
GW   359    1  -.00381  .006927  .000286  -.00254  .006927  .000127     .005
GW   360    1  -.00254  .006927  .000127  -.00127  .006927  .000032     .005
GW   361    1  -.00127  .006927  .000032       .0  .006927       .0     .005
GW   362    1       .0  .006927       .0   .00127  .006927  .000032     .005
GW   363    1   .00127  .006927  .000032   .00254  .006927  .000127     .005
GW   364    1   .00254  .006927  .000127   .00381  .006927  .000286     .005
GW   365    1   .00381  .006927  .000286   .00508  .006927  .000508     .005
GW   366    1   .00508  .006927  .000508   .00635  .006927  .000794     .005
GW   367    1   .00635  .006927  .000794   .00762  .006927  .001143     .005
GW   368    1   .00762  .006927  .001143   .00889  .006927  .001556     .005
GW   369    1   .00889  .006927  .001556   .01016  .006927  .002032     .005
GW   370    1   .01016  .006927  .002032   .01143  .006927  .002572     .005
GW   371    1   .01143  .006927  .002572    .0127  .006927  .003175     .005
GW   372    1   -.0127  .020782  .003175  -.01143  .020782  .002572     .005
GW   373    1  -.01143  .020782  .002572  -.01016  .020782  .002032     .005
GW   374    1  -.01016  .020782  .002032  -.00889  .020782  .001556     .005
GW   375    1  -.00889  .020782  .001556  -.00762  .020782  .001143     .005
GW   376    1  -.00762  .020782  .001143  -.00635  .020782  .000794     .005
GW   377    1  -.00635  .020782  .000794  -.00508  .020782  .000508     .005
GW   378    1  -.00508  .020782  .000508  -.00381  .020782  .000286     .005
GW   379    1  -.00381  .020782  .000286  -.00254  .020782  .000127     .005
GW   380    1  -.00254  .020782  .000127  -.00127  .020782  .000032     .005
GW   381    1  -.00127  .020782  .000032       .0  .020782       .0     .005
GW   382    1       .0  .020782       .0   .00127  .020782  .000032     .005
GW   383    1   .00127  .020782  .000032   .00254  .020782  .000127     .005
GW   384    1   .00254  .020782  .000127   .00381  .020782  .000286     .005
GW   385    1   .00381  .020782  .000286   .00508  .020782  .000508     .005
GW   386    1   .00508  .020782  .000508   .00635  .020782  .000794     .005
GW   387    1   .00635  .020782  .000794   .00762  .020782  .001143     .005