CM Example 2 :	Loaded dipole in free space
CM 		See GetStarted.txt
CM 
CM 
CM 
CM 
CE
SY len=0.316	'Symbol: Length for WL/2
GW	1	9	0	-len/2	0	0	len/2	0	0.003979	'Wire 1, 9 segments, halve wavelength long.
GE	0
LD	5	1	0	0	24900000	'Wire conductivity
GN	-1
EK
EX	0	1	5	0	1	0	0	'Voltage source (1+j0) at wire 1 segment 5.
FR	0	0	0	0	435	0
EN
