CM Length X1 = .095
CM Length X2 = .095
CM Length Y = .095
CM X sections = 10
CM Y sections = 10
CM Rotate X, Y, Z = 0, 0, 0
CM Move X, Y, Z = 0, 0, 0
CE
GW	1	2	-.0475	-.0475	.003	-.0475	-.038	.003	.000756
GW	2	2	-.0475	-.038	.003	-.0475	-.0285	.003	.000756
GW	3	2	-.0475	-.0285	.003	-.0475	-.019	.003	.000756
GW	4	2	-.0475	-.019	.003	-.0475	-.0095	.003	.000756
GW	5	2	-.0475	-.0095	.003	-.0475	0	.003	.000756
GW	6	2	-.0475	0	.003	-.0475	.0095	.003	.000756
GW	7	2	-.0475	.0095	.003	-.0475	.019	.003	.000756
GW	8	2	-.0475	.019	.003	-.0475	.0285	.003	.000756
GW	9	2	-.0475	.0285	.003	-.0475	.038	.003	.000756
GW	10	2	-.0475	.038	.003	-.0475	.0475	.003	.000756
GW	11	2	-.038	-.0475	.003	-.038	-.038	.003	.000756
GW	12	2	-.038	-.038	.003	-.038	-.0285	.003	.000756
GW	13	2	-.038	-.0285	.003	-.038	-.019	.003	.000756
GW	14	2	-.038	-.019	.003	-.038	-.0095	.003	.000756
GW	15	2	-.038	-.0095	.003	-.038	0	.003	.000756
GW	16	2	-.038	0	.003	-.038	.0095	.003	.000756
GW	17	2	-.038	.0095	.003	-.038	.019	.003	.000756
GW	18	2	-.038	.019	.003	-.038	.0285	.003	.000756
GW	19	2	-.038	.0285	.003	-.038	.038	.003	.000756
GW	20	2	-.038	.038	.003	-.038	.0475	.003	.000756
GW	21	2	-.0285	-.0475	.003	-.0285	-.038	.003	.000756
GW	22	2	-.0285	-.038	.003	-.0285	-.0285	.003	.000756
GW	23	2	-.0285	-.0285	.003	-.0285	-.019	.003	.000756
GW	24	2	-.0285	-.019	.003	-.0285	-.0095	.003	.000756
GW	25	2	-.0285	-.0095	.003	-.0285	0	.003	.000756
GW	26	2	-.0285	0	.003	-.0285	.0095	.003	.000756
GW	27	2	-.0285	.0095	.003	-.0285	.019	.003	.000756
GW	28	2	-.0285	.019	.003	-.0285	.0285	.003	.000756
GW	29	2	-.0285	.0285	.003	-.0285	.038	.003	.000756
GW	30	2	-.0285	.038	.003	-.0285	.0475	.003	.000756
GW	31	2	-.019	-.0475	.003	-.019	-.038	.003	.000756
GW	32	2	-.019	-.038	.003	-.019	-.0285	.003	.000756
GW	33	2	-.019	-.0285	.003	-.019	-.019	.003	.000756
GW	34	2	-.019	-.019	.003	-.019	-.0095	.003	.000756
GW	35	2	-.019	-.0095	.003	-.019	0	.003	.000756
GW	36	2	-.019	0	.003	-.019	.0095	.003	.000756
GW	37	2	-.019	.0095	.003	-.019	.019	.003	.000756
GW	38	2	-.019	.019	.003	-.019	.0285	.003	.000756
GW	39	2	-.019	.0285	.003	-.019	.038	.003	.000756
GW	40	2	-.019	.038	.003	-.019	.0475	.003	.000756
GW	41	2	-.0095	-.0475	.003	-.0095	-.038	.003	.000756
GW	42	2	-.0095	-.038	.003	-.0095	-.0285	.003	.000756
GW	43	2	-.0095	-.0285	.003	-.0095	-.019	.003	.000756
GW	44	2	-.0095	-.019	.003	-.0095	-.0095	.003	.000756
GW	45	2	-.0095	-.0095	.003	-.0095	0	.003	.000756
GW	46	2	-.0095	0	.003	-.0095	.0095	.003	.000756
GW	47	2	-.0095	.0095	.003	-.0095	.019	.003	.000756
GW	48	2	-.0095	.019	.003	-.0095	.0285	.003	.000756
GW	49	2	-.0095	.0285	.003	-.0095	.038	.003	.000756
GW	50	2	-.0095	.038	.003	-.0095	.0475	.003	.000756
GW	51	2	0	-.0475	.003	0	-.038	.003	.000756
GW	52	2	0	-.038	.003	0	-.0285	.003	.000756
GW	53	2	0	-.0285	.003	0	-.019	.003	.000756
GW	54	2	0	-.019	.003	0	-.0095	.003	.000756
GW	55	2	0	-.0095	.003	0	0	.003	.000756
GW	56	2	0	0	.003	0	.0095	.003	.000756
GW	57	2	0	.0095	.003	0	.019	.003	.000756
GW	58	2	0	.019	.003	0	.0285	.003	.000756
GW	59	2	0	.0285	.003	0	.038	.003	.000756
GW	60	2	0	.038	.003	0	.0475	.003	.000756
GW	61	2	.0095	-.0475	.003	.0095	-.038	.003	.000756
GW	62	2	.0095	-.038	.003	.0095	-.0285	.003	.000756
GW	63	2	.0095	-.0285	.003	.0095	-.019	.003	.000756
GW	64	2	.0095	-.019	.003	.0095	-.0095	.003	.000756
GW	65	2	.0095	-.0095	.003	.0095	0	.003	.000756
GW	66	2	.0095	0	.003	.0095	.0095	.003	.000756
GW	67	2	.0095	.0095	.003	.0095	.019	.003	.000756
GW	68	2	.0095	.019	.003	.0095	.0285	.003	.000756
GW	69	2	.0095	.0285	.003	.0095	.038	.003	.000756
GW	70	2	.0095	.038	.003	.0095	.0475	.003	.000756
GW	71	2	.019	-.0475	.003	.019	-.038	.003	.000756
GW	72	2	.019	-.038	.003	.019	-.0285	.003	.000756
GW	73	2	.019	-.0285	.003	.019	-.019	.003	.000756
GW	74	2	.019	-.019	.003	.019	-.0095	.003	.000756
GW	75	2	.019	-.0095	.003	.019	0	.003	.000756
GW	76	2	.019	0	.003	.019	.0095	.003	.000756
GW	77	2	.019	.0095	.003	.019	.019	.003	.000756
GW	78	2	.019	.019	.003	.019	.0285	.003	.000756
GW	79	2	.019	.0285	.003	.019	.038	.003	.000756
GW	80	2	.019	.038	.003	.019	.0475	.003	.000756
GW	81	2	.0285	-.0475	.003	.0285	-.038	.003	.000756
GW	82	2	.0285	-.038	.003	.0285	-.0285	.003	.000756
GW	83	2	.0285	-.0285	.003	.0285	-.019	.003	.000756
GW	84	2	.0285	-.019	.003	.0285	-.0095	.003	.000756
GW	85	2	.0285	-.0095	.003	.0285	0	.003	.000756
GW	86	2	.0285	0	.003	.0285	.0095	.003	.000756
GW	87	2	.0285	.0095	.003	.0285	.019	.003	.000756
GW	88	2	.0285	.019	.003	.0285	.0285	.003	.000756
GW	89	2	.0285	.0285	.003	.0285	.038	.003	.000756
GW	90	2	.0285	.038	.003	.0285	.0475	.003	.000756
GW	91	2	.038	-.0475	.003	.038	-.038	.003	.000756
GW	92	2	.038	-.038	.003	.038	-.0285	.003	.000756
GW	93	2	.038	-.0285	.003	.038	-.019	.003	.000756
GW	94	2	.038	-.019	.003	.038	-.0095	.003	.000756
GW	95	2	.038	-.0095	.003	.038	0	.003	.000756
GW	96	2	.038	0	.003	.038	.0095	.003	.000756
GW	97	2	.038	.0095	.003	.038	.019	.003	.000756
GW	98	2	.038	.019	.003	.038	.0285	.003	.000756
GW	99	2	.038	.0285	.003	.038	.038	.003	.000756
GW	100	2	.038	.038	.003	.038	.0475	.003	.000756
GW	101	2	.0475	-.0475	.003	.0475	-.038	.003	.000756
GW	102	2	.0475	-.038	.003	.0475	-.0285	.003	.000756
GW	103	2	.0475	-.0285	.003	.0475	-.019	.003	.000756
GW	104	2	.0475	-.019	.003	.0475	-.0095	.003	.000756
GW	105	2	.0475	-.0095	.003	.0475	0	.003	.000756
GW	106	2	.0475	0	.003	.0475	.0095	.003	.000756
GW	107	2	.0475	.0095	.003	.0475	.019	.003	.000756
GW	108	2	.0475	.019	.003	.0475	.0285	.003	.000756
GW	109	2	.0475	.0285	.003	.0475	.038	.003	.000756
GW	110	2	.0475	.038	.003	.0475	.0475	.003	.000756
GW	111	2	-.0475	-.0475	.003	-.038	-.0475	.003	.000756
GW	112	2	-.038	-.0475	.003	-.0285	-.0475	.003	.000756
GW	113	2	-.0285	-.0475	.003	-.019	-.0475	.003	.000756
GW	114	2	-.019	-.0475	.003	-.0095	-.0475	.003	.000756
GW	115	2	-.0095	-.0475	.003	0	-.0475	.003	.000756
GW	116	2	0	-.0475	.003	.0095	-.0475	.003	.000756
GW	117	2	.0095	-.0475	.003	.019	-.0475	.003	.000756
GW	118	2	.019	-.0475	.003	.0285	-.0475	.003	.000756
GW	119	2	.0285	-.0475	.003	.038	-.0475	.003	.000756
GW	120	2	.038	-.0475	.003	.0475	-.0475	.003	.000756
GW	121	2	-.0475	-.038	.003	-.038	-.038	.003	.000756
GW	122	2	-.038	-.038	.003	-.0285	-.038	.003	.000756
GW	123	2	-.0285	-.038	.003	-.019	-.038	.003	.000756
GW	124	2	-.019	-.038	.003	-.0095	-.038	.003	.000756
GW	125	2	-.0095	-.038	.003	0	-.038	.003	.000756
GW	126	2	0	-.038	.003	.0095	-.038	.003	.000756
GW	127	2	.0095	-.038	.003	.019	-.038	.003	.000756
GW	128	2	.019	-.038	.003	.0285	-.038	.003	.000756
GW	129	2	.0285	-.038	.003	.038	-.038	.003	.000756
GW	130	2	.038	-.038	.003	.0475	-.038	.003	.000756
GW	131	2	-.0475	-.0285	.003	-.038	-.0285	.003	.000756
GW	132	2	-.038	-.0285	.003	-.0285	-.0285	.003	.000756
GW	133	2	-.0285	-.0285	.003	-.019	-.0285	.003	.000756
GW	134	2	-.019	-.0285	.003	-.0095	-.0285	.003	.000756
GW	135	2	-.0095	-.0285	.003	0	-.0285	.003	.000756
GW	136	2	0	-.0285	.003	.0095	-.0285	.003	.000756
GW	137	2	.0095	-.0285	.003	.019	-.0285	.003	.000756
GW	138	2	.019	-.0285	.003	.0285	-.0285	.003	.000756
GW	139	2	.0285	-.0285	.003	.038	-.0285	.003	.000756
GW	140	2	.038	-.0285	.003	.0475	-.0285	.003	.000756
GW	141	2	-.0475	-.019	.003	-.038	-.019	.003	.000756
GW	142	2	-.038	-.019	.003	-.0285	-.019	.003	.000756
GW	143	2	-.0285	-.019	.003	-.019	-.019	.003	.000756
GW	144	2	-.019	-.019	.003	-.0095	-.019	.003	.000756
GW	145	2	-.0095	-.019	.003	0	-.019	.003	.000756
GW	146	2	0	-.019	.003	.0095	-.019	.003	.000756
GW	147	2	.0095	-.019	.003	.019	-.019	.003	.000756
GW	148	2	.019	-.019	.003	.0285	-.019	.003	.000756
GW	149	2	.0285	-.019	.003	.038	-.019	.003	.000756
GW	150	2	.038	-.019	.003	.0475	-.019	.003	.000756
GW	151	2	-.0475	-.0095	.003	-.038	-.0095	.003	.000756
GW	152	2	-.038	-.0095	.003	-.0285	-.0095	.003	.000756
GW	153	2	-.0285	-.0095	.003	-.019	-.0095	.003	.000756
GW	154	2	-.019	-.0095	.003	-.0095	-.0095	.003	.000756
GW	155	2	-.0095	-.0095	.003	0	-.0095	.003	.000756
GW	156	2	0	-.0095	.003	.0095	-.0095	.003	.000756
GW	157	2	.0095	-.0095	.003	.019	-.0095	.003	.000756
GW	158	2	.019	-.0095	.003	.0285	-.0095	.003	.000756
GW	159	2	.0285	-.0095	.003	.038	-.0095	.003	.000756
GW	160	2	.038	-.0095	.003	.0475	-.0095	.003	.000756
GW	161	2	-.0475	0	.003	-.038	0	.003	.000756
GW	162	2	-.038	0	.003	-.0285	0	.003	.000756
GW	163	2	-.0285	0	.003	-.019	0	.003	.000756
GW	164	2	-.019	0	.003	-.0095	0	.003	.000756
GW	165	2	-.0095	0	.003	0	0	.003	.000756
GW	166	2	0	0	.003	.0095	0	.003	.000756
GW	167	2	.0095	0	.003	.019	0	.003	.000756
GW	168	2	.019	0	.003	.0285	0	.003	.000756
GW	169	2	.0285	0	.003	.038	0	.003	.000756
GW	170	2	.038	0	.003	.0475	0	.003	.000756
GW	171	2	-.0475	.0095	.003	-.038	.0095	.003	.000756
GW	172	2	-.038	.0095	.003	-.0285	.0095	.003	.000756
GW	173	2	-.0285	.0095	.003	-.019	.0095	.003	.000756
GW	174	2	-.019	.0095	.003	-.0095	.0095	.003	.000756
GW	175	2	-.0095	.0095	.003	0	.0095	.003	.000756
GW	176	2	0	.0095	.003	.0095	.0095	.003	.000756
GW	177	2	.0095	.0095	.003	.019	.0095	.003	.000756
GW	178	2	.019	.0095	.003	.0285	.0095	.003	.000756
GW	179	2	.0285	.0095	.003	.038	.0095	.003	.000756
GW	180	2	.038	.0095	.003	.0475	.0095	.003	.000756
GW	181	2	-.0475	.019	.003	-.038	.019	.003	.000756
GW	182	2	-.038	.019	.003	-.0285	.019	.003	.000756
GW	183	2	-.0285	.019	.003	-.019	.019	.003	.000756
GW	184	2	-.019	.019	.003	-.0095	.019	.003	.000756
GW	185	2	-.0095	.019	.003	0	.019	.003	.000756
GW	186	2	0	.019	.003	.0095	.019	.003	.000756
GW	187	2	.0095	.019	.003	.019	.019	.003	.000756
GW	188	2	.019	.019	.003	.0285	.019	.003	.000756
GW	189	2	.0285	.019	.003	.038	.019	.003	.000756
GW	190	2	.038	.019	.003	.0475	.019	.003	.000756
GW	191	2	-.0475	.0285	.003	-.038	.0285	.003	.000756
GW	192	2	-.038	.0285	.003	-.0285	.0285	.003	.000756
GW	193	2	-.0285	.0285	.003	-.019	.0285	.003	.000756
GW	194	2	-.019	.0285	.003	-.0095	.0285	.003	.000756
GW	195	2	-.0095	.0285	.003	0	.0285	.003	.000756
GW	196	2	0	.0285	.003	.0095	.0285	.003	.000756
GW	197	2	.0095	.0285	.003	.019	.0285	.003	.000756
GW	198	2	.019	.0285	.003	.0285	.0285	.003	.000756
GW	199	2	.0285	.0285	.003	.038	.0285	.003	.000756
GW	200	2	.038	.0285	.003	.0475	.0285	.003	.000756
GW	201	2	-.0475	.038	.003	-.038	.038	.003	.000756
GW	202	2	-.038	.038	.003	-.0285	.038	.003	.000756
GW	203	2	-.0285	.038	.003	-.019	.038	.003	.000756
GW	204	2	-.019	.038	.003	-.0095	.038	.003	.000756
GW	205	2	-.0095	.038	.003	0	.038	.003	.000756
GW	206	2	0	.038	.003	.0095	.038	.003	.000756
GW	207	2	.0095	.038	.003	.019	.038	.003	.000756
GW	208	2	.019	.038	.003	.0285	.038	.003	.000756
GW	209	2	.0285	.038	.003	.038	.038	.003	.000756
GW	210	2	.038	.038	.003	.0475	.038	.003	.000756
GW	211	2	-.0475	.0475	.003	-.038	.0475	.003	.000756
GW	212	2	-.038	.0475	.003	-.0285	.0475	.003	.000756
GW	213	2	-.0285	.0475	.003	-.019	.0475	.003	.000756
GW	214	2	-.019	.0475	.003	-.0095	.0475	.003	.000756
GW	215	2	-.0095	.0475	.003	0	.0475	.003	.000756
GW	216	2	0	.0475	.003	.0095	.0475	.003	.000756
GW	217	2	.0095	.0475	.003	.019	.0475	.003	.000756
GW	218	2	.019	.0475	.003	.0285	.0475	.003	.000756
GW	219	2	.0285	.0475	.003	.038	.0475	.003	.000756
GW	220	2	.038	.0475	.003	.0475	.0475	.003	.000756
GE	1
GN	2	0	0	0	4	0.003
EK
EX	0	56	1	0	1	0	0
FR	0	0	0	0	1572.42	0
EN
