CM Example 2 :	Loaded dipole in free space
CM 		See GetStarted.txt
CE
GW	865	9	5.e-3	0	-5.e-3	0.0221	0	-5.e-3	7.07e-5
GW	866	9	-5.e-3	0	-5.e-3	-0.0221	0	-5.e-3	7.07e-5
GW	867	90	-6.717e-19	5.e-3	-5.e-3	5.8707e-16	3.505	-5.e-3	7.07e-5
GW	868	90	-1.735e-18	-5.e-3	-5.e-3	1.2126e-15	-3.505	-5.e-3	7.07e-5
GW	869	1	-4.5e-3	4.5e-3	-5.e-3	-4.e-3	4.5e-3	-5.e-3	3.77e-5
GW	870	1	-4.e-3	4.5e-3	-5.e-3	-3.5e-3	4.5e-3	-5.e-3	3.77e-5
GW	871	1	-3.5e-3	4.5e-3	-5.e-3	-3.e-3	4.5e-3	-5.e-3	3.77e-5
GW	872	1	-3.e-3	4.5e-3	-5.e-3	-2.5e-3	4.5e-3	-5.e-3	3.77e-5
GW	873	1	-2.5e-3	4.5e-3	-5.e-3	-2.e-3	4.5e-3	-5.e-3	3.77e-5
GW	874	1	-2.e-3	4.5e-3	-5.e-3	-1.5e-3	4.5e-3	-5.e-3	3.77e-5
GW	875	1	-1.5e-3	4.5e-3	-5.e-3	-1.e-3	4.5e-3	-5.e-3	3.77e-5
GW	876	1	-1.e-3	4.5e-3	-5.e-3	-5.e-4	4.5e-3	-5.e-3	3.77e-5
GW	877	1	-5.e-4	4.5e-3	-5.e-3	8.6736e-19	4.5e-3	-5.e-3	3.77e-5
GW	878	1	8.6736e-19	4.5e-3	-5.e-3	5.e-4	4.5e-3	-5.e-3	3.77e-5
GW	879	1	5.e-4	4.5e-3	-5.e-3	1.e-3	4.5e-3	-5.e-3	3.77e-5
GW	880	1	1.e-3	4.5e-3	-5.e-3	1.5e-3	4.5e-3	-5.e-3	3.77e-5
GW	881	1	1.5e-3	4.5e-3	-5.e-3	2.e-3	4.5e-3	-5.e-3	3.77e-5
GW	882	1	2.e-3	4.5e-3	-5.e-3	2.5e-3	4.5e-3	-5.e-3	3.77e-5
GW	883	1	2.5e-3	4.5e-3	-5.e-3	3.e-3	4.5e-3	-5.e-3	3.77e-5
GW	884	1	3.e-3	4.5e-3	-5.e-3	3.5e-3	4.5e-3	-5.e-3	3.77e-5
GW	885	1	3.5e-3	4.5e-3	-5.e-3	4.e-3	4.5e-3	-5.e-3	3.77e-5
GW	886	1	4.e-3	4.5e-3	-5.e-3	4.5e-3	4.5e-3	-5.e-3	3.77e-5
GW	887	1	-4.5e-3	4.e-3	-5.e-3	-4.e-3	4.e-3	-5.e-3	3.77e-5
GW	888	1	-4.e-3	4.e-3	-5.e-3	-3.5e-3	4.e-3	-5.e-3	3.77e-5
GW	889	1	-3.5e-3	4.e-3	-5.e-3	-3.e-3	4.e-3	-5.e-3	3.77e-5
GW	890	1	-3.e-3	4.e-3	-5.e-3	-2.5e-3	4.e-3	-5.e-3	3.77e-5
GW	891	1	-2.5e-3	4.e-3	-5.e-3	-2.e-3	4.e-3	-5.e-3	3.77e-5
GW	892	1	-2.e-3	4.e-3	-5.e-3	-1.5e-3	4.e-3	-5.e-3	3.77e-5
GW	893	1	-1.5e-3	4.e-3	-5.e-3	-1.e-3	4.e-3	-5.e-3	3.77e-5
GW	894	1	-1.e-3	4.e-3	-5.e-3	-5.e-4	4.e-3	-5.e-3	3.77e-5
GW	895	1	-5.e-4	4.e-3	-5.e-3	8.6736e-19	4.e-3	-5.e-3	3.77e-5
GW	896	1	8.6736e-19	4.e-3	-5.e-3	5.e-4	4.e-3	-5.e-3	3.77e-5
GW	897	1	5.e-4	4.e-3	-5.e-3	1.e-3	4.e-3	-5.e-3	3.77e-5
GW	898	1	1.e-3	4.e-3	-5.e-3	1.5e-3	4.e-3	-5.e-3	3.77e-5
GW	899	1	1.5e-3	4.e-3	-5.e-3	2.e-3	4.e-3	-5.e-3	3.77e-5
GW	900	1	2.e-3	4.e-3	-5.e-3	2.5e-3	4.e-3	-5.e-3	3.77e-5
GW	901	1	2.5e-3	4.e-3	-5.e-3	3.e-3	4.e-3	-5.e-3	3.77e-5
GW	902	1	3.e-3	4.e-3	-5.e-3	3.5e-3	4.e-3	-5.e-3	3.77e-5
GW	903	1	3.5e-3	4.e-3	-5.e-3	4.e-3	4.e-3	-5.e-3	3.77e-5
GW	904	1	4.e-3	4.e-3	-5.e-3	4.5e-3	4.e-3	-5.e-3	3.77e-5
GW	905	1	-4.5e-3	3.5e-3	-5.e-3	-4.e-3	3.5e-3	-5.e-3	3.77e-5
GW	906	1	-4.e-3	3.5e-3	-5.e-3	-3.5e-3	3.5e-3	-5.e-3	3.77e-5
GW	907	1	-3.5e-3	3.5e-3	-5.e-3	-3.e-3	3.5e-3	-5.e-3	3.77e-5
GW	908	1	-3.e-3	3.5e-3	-5.e-3	-2.5e-3	3.5e-3	-5.e-3	3.77e-5
GW	909	1	-2.5e-3	3.5e-3	-5.e-3	-2.e-3	3.5e-3	-5.e-3	3.77e-5
GW	910	1	-2.e-3	3.5e-3	-5.e-3	-1.5e-3	3.5e-3	-5.e-3	3.77e-5
GW	911	1	-1.5e-3	3.5e-3	-5.e-3	-1.e-3	3.5e-3	-5.e-3	3.77e-5
GW	912	1	-1.e-3	3.5e-3	-5.e-3	-5.e-4	3.5e-3	-5.e-3	3.77e-5
GW	913	1	-5.e-4	3.5e-3	-5.e-3	8.6736e-19	3.5e-3	-5.e-3	3.77e-5
GW	914	1	8.6736e-19	3.5e-3	-5.e-3	5.e-4	3.5e-3	-5.e-3	3.77e-5
GW	915	1	5.e-4	3.5e-3	-5.e-3	1.e-3	3.5e-3	-5.e-3	3.77e-5
GW	916	1	1.e-3	3.5e-3	-5.e-3	1.5e-3	3.5e-3	-5.e-3	3.77e-5
GW	917	1	1.5e-3	3.5e-3	-5.e-3	2.e-3	3.5e-3	-5.e-3	3.77e-5
GW	918	1	2.e-3	3.5e-3	-5.e-3	2.5e-3	3.5e-3	-5.e-3	3.77e-5
GW	919	1	2.5e-3	3.5e-3	-5.e-3	3.e-3	3.5e-3	-5.e-3	3.77e-5
GW	920	1	3.e-3	3.5e-3	-5.e-3	3.5e-3	3.5e-3	-5.e-3	3.77e-5
GW	921	1	3.5e-3	3.5e-3	-5.e-3	4.e-3	3.5e-3	-5.e-3	3.77e-5
GW	922	1	4.e-3	3.5e-3	-5.e-3	4.5e-3	3.5e-3	-5.e-3	3.77e-5
GW	923	1	-4.5e-3	3.e-3	-5.e-3	-4.e-3	3.e-3	-5.e-3	3.77e-5
GW	924	1	-4.e-3	3.e-3	-5.e-3	-3.5e-3	3.e-3	-5.e-3	3.77e-5
GW	925	1	-3.5e-3	3.e-3	-5.e-3	-3.e-3	3.e-3	-5.e-3	3.77e-5
GW	926	1	-3.e-3	3.e-3	-5.e-3	-2.5e-3	3.e-3	-5.e-3	3.77e-5
GW	927	1	-2.5e-3	3.e-3	-5.e-3	-2.e-3	3.e-3	-5.e-3	3.77e-5
GW	928	1	-2.e-3	3.e-3	-5.e-3	-1.5e-3	3.e-3	-5.e-3	3.77e-5
GW	929	1	-1.5e-3	3.e-3	-5.e-3	-1.e-3	3.e-3	-5.e-3	3.77e-5
GW	930	1	-1.e-3	3.e-3	-5.e-3	-5.e-4	3.e-3	-5.e-3	3.77e-5
GW	931	1	-5.e-4	3.e-3	-5.e-3	8.6736e-19	3.e-3	-5.e-3	3.77e-5
GW	932	1	8.6736e-19	3.e-3	-5.e-3	5.e-4	3.e-3	-5.e-3	3.77e-5
GW	933	1	5.e-4	3.e-3	-5.e-3	1.e-3	3.e-3	-5.e-3	3.77e-5
GW	934	1	1.e-3	3.e-3	-5.e-3	1.5e-3	3.e-3	-5.e-3	3.77e-5
GW	935	1	1.5e-3	3.e-3	-5.e-3	2.e-3	3.e-3	-5.e-3	3.77e-5
GW	936	1	2.e-3	3.e-3	-5.e-3	2.5e-3	3.e-3	-5.e-3	3.77e-5
GW	937	1	2.5e-3	3.e-3	-5.e-3	3.e-3	3.e-3	-5.e-3	3.77e-5
GW	938	1	3.e-3	3.e-3	-5.e-3	3.5e-3	3.e-3	-5.e-3	3.77e-5
GW	939	1	3.5e-3	3.e-3	-5.e-3	4.e-3	3.e-3	-5.e-3	3.77e-5
GW	940	1	4.e-3	3.e-3	-5.e-3	4.5e-3	3.e-3	-5.e-3	3.77e-5
GW	941	1	-4.5e-3	2.5e-3	-5.e-3	-4.e-3	2.5e-3	-5.e-3	3.77e-5
GW	942	1	-4.e-3	2.5e-3	-5.e-3	-3.5e-3	2.5e-3	-5.e-3	3.77e-5
GW	943	1	-3.5e-3	2.5e-3	-5.e-3	-3.e-3	2.5e-3	-5.e-3	3.77e-5
GW	944	1	-3.e-3	2.5e-3	-5.e-3	-2.5e-3	2.5e-3	-5.e-3	3.77e-5
GW	945	1	-2.5e-3	2.5e-3	-5.e-3	-2.e-3	2.5e-3	-5.e-3	3.77e-5
GW	946	1	-2.e-3	2.5e-3	-5.e-3	-1.5e-3	2.5e-3	-5.e-3	3.77e-5
GW	947	1	-1.5e-3	2.5e-3	-5.e-3	-1.e-3	2.5e-3	-5.e-3	3.77e-5
GW	948	1	-1.e-3	2.5e-3	-5.e-3	-5.e-4	2.5e-3	-5.e-3	3.77e-5
GW	949	1	-5.e-4	2.5e-3	-5.e-3	8.6736e-19	2.5e-3	-5.e-3	3.77e-5
GW	950	1	8.6736e-19	2.5e-3	-5.e-3	5.e-4	2.5e-3	-5.e-3	3.77e-5
GW	951	1	5.e-4	2.5e-3	-5.e-3	1.e-3	2.5e-3	-5.e-3	3.77e-5
GW	952	1	1.e-3	2.5e-3	-5.e-3	1.5e-3	2.5e-3	-5.e-3	3.77e-5
GW	953	1	1.5e-3	2.5e-3	-5.e-3	2.e-3	2.5e-3	-5.e-3	3.77e-5
GW	954	1	2.e-3	2.5e-3	-5.e-3	2.5e-3	2.5e-3	-5.e-3	3.77e-5
GW	955	1	2.5e-3	2.5e-3	-5.e-3	3.e-3	2.5e-3	-5.e-3	3.77e-5
GW	956	1	3.e-3	2.5e-3	-5.e-3	3.5e-3	2.5e-3	-5.e-3	3.77e-5
GW	957	1	3.5e-3	2.5e-3	-5.e-3	4.e-3	2.5e-3	-5.e-3	3.77e-5
GW	958	1	4.e-3	2.5e-3	-5.e-3	4.5e-3	2.5e-3	-5.e-3	3.77e-5
GW	959	1	-4.5e-3	2.e-3	-5.e-3	-4.e-3	2.e-3	-5.e-3	3.77e-5
GW	960	1	-4.e-3	2.e-3	-5.e-3	-3.5e-3	2.e-3	-5.e-3	3.77e-5
GW	961	1	-3.5e-3	2.e-3	-5.e-3	-3.e-3	2.e-3	-5.e-3	3.77e-5
GW	962	1	-3.e-3	2.e-3	-5.e-3	-2.5e-3	2.e-3	-5.e-3	3.77e-5
GW	963	1	-2.5e-3	2.e-3	-5.e-3	-2.e-3	2.e-3	-5.e-3	3.77e-5
GW	964	1	-2.e-3	2.e-3	-5.e-3	-1.5e-3	2.e-3	-5.e-3	3.77e-5
GW	965	1	-1.5e-3	2.e-3	-5.e-3	-1.e-3	2.e-3	-5.e-3	3.77e-5
GW	966	1	-1.e-3	2.e-3	-5.e-3	-5.e-4	2.e-3	-5.e-3	3.77e-5
GW	967	1	-5.e-4	2.e-3	-5.e-3	0	2.e-3	-5.e-3	3.77e-5
GW	968	1	0	2.e-3	-5.e-3	5.e-4	2.e-3	-5.e-3	3.77e-5
GW	969	1	5.e-4	2.e-3	-5.e-3	1.e-3	2.e-3	-5.e-3	3.77e-5
GW	970	1	1.e-3	2.e-3	-5.e-3	1.5e-3	2.e-3	-5.e-3	3.77e-5
GW	971	1	1.5e-3	2.e-3	-5.e-3	2.e-3	2.e-3	-5.e-3	3.77e-5
GW	972	1	2.e-3	2.e-3	-5.e-3	2.5e-3	2.e-3	-5.e-3	3.77e-5
GW	973	1	2.5e-3	2.e-3	-5.e-3	3.e-3	2.e-3	-5.e-3	3.77e-5
GW	974	1	3.e-3	2.e-3	-5.e-3	3.5e-3	2.e-3	-5.e-3	3.77e-5
GW	975	1	3.5e-3	2.e-3	-5.e-3	4.e-3	2.e-3	-5.e-3	3.77e-5
GW	976	1	4.e-3	2.e-3	-5.e-3	4.5e-3	2.e-3	-5.e-3	3.77e-5
GW	977	1	-4.5e-3	1.5e-3	-5.e-3	-4.e-3	1.5e-3	-5.e-3	3.77e-5
GW	978	1	-4.e-3	1.5e-3	-5.e-3	-3.5e-3	1.5e-3	-5.e-3	3.77e-5
GW	979	1	-3.5e-3	1.5e-3	-5.e-3	-3.e-3	1.5e-3	-5.e-3	3.77e-5
GW	980	1	-3.e-3	1.5e-3	-5.e-3	-2.5e-3	1.5e-3	-5.e-3	3.77e-5
GW	981	1	-2.5e-3	1.5e-3	-5.e-3	-2.e-3	1.5e-3	-5.e-3	3.77e-5
GW	982	1	-2.e-3	1.5e-3	-5.e-3	-1.5e-3	1.5e-3	-5.e-3	3.77e-5
GW	983	1	-1.5e-3	1.5e-3	-5.e-3	-1.e-3	1.5e-3	-5.e-3	3.77e-5
GW	984	1	-1.e-3	1.5e-3	-5.e-3	-5.e-4	1.5e-3	-5.e-3	3.77e-5
GW	985	1	-5.e-4	1.5e-3	-5.e-3	0	1.5e-3	-5.e-3	3.77e-5
GW	986	1	0	1.5e-3	-5.e-3	5.e-4	1.5e-3	-5.e-3	3.77e-5
GW	987	1	5.e-4	1.5e-3	-5.e-3	1.e-3	1.5e-3	-5.e-3	3.77e-5
GW	988	1	1.e-3	1.5e-3	-5.e-3	1.5e-3	1.5e-3	-5.e-3	3.77e-5
GW	989	1	1.5e-3	1.5e-3	-5.e-3	2.e-3	1.5e-3	-5.e-3	3.77e-5
GW	990	1	2.e-3	1.5e-3	-5.e-3	2.5e-3	1.5e-3	-5.e-3	3.77e-5
GW	991	1	2.5e-3	1.5e-3	-5.e-3	3.e-3	1.5e-3	-5.e-3	3.77e-5
GW	992	1	3.e-3	1.5e-3	-5.e-3	3.5e-3	1.5e-3	-5.e-3	3.77e-5
GW	993	1	3.5e-3	1.5e-3	-5.e-3	4.e-3	1.5e-3	-5.e-3	3.77e-5
GW	994	1	4.e-3	1.5e-3	-5.e-3	4.5e-3	1.5e-3	-5.e-3	3.77e-5
GW	995	1	-4.5e-3	1.e-3	-5.e-3	-4.e-3	1.e-3	-5.e-3	3.77e-5
GW	996	1	-4.e-3	1.e-3	-5.e-3	-3.5e-3	1.e-3	-5.e-3	3.77e-5
GW	997	1	-3.5e-3	1.e-3	-5.e-3	-3.e-3	1.e-3	-5.e-3	3.77e-5
GW	998	1	-3.e-3	1.e-3	-5.e-3	-2.5e-3	1.e-3	-5.e-3	3.77e-5
GW	999	1	-2.5e-3	1.e-3	-5.e-3	-2.e-3	1.e-3	-5.e-3	3.77e-5
GW	1000	1	-2.e-3	1.e-3	-5.e-3	-1.5e-3	1.e-3	-5.e-3	3.77e-5
GW	1001	1	-1.5e-3	1.e-3	-5.e-3	-1.e-3	1.e-3	-5.e-3	3.77e-5
GW	1002	1	-1.e-3	1.e-3	-5.e-3	-5.e-4	1.e-3	-5.e-3	3.77e-5
GW	1003	1	-5.e-4	1.e-3	-5.e-3	0	1.e-3	-5.e-3	3.77e-5
GW	1004	1	0	1.e-3	-5.e-3	5.e-4	1.e-3	-5.e-3	3.77e-5
GW	1005	1	5.e-4	1.e-3	-5.e-3	1.e-3	1.e-3	-5.e-3	3.77e-5
GW	1006	1	1.e-3	1.e-3	-5.e-3	1.5e-3	1.e-3	-5.e-3	3.77e-5
GW	1007	1	1.5e-3	1.e-3	-5.e-3	2.e-3	1.e-3	-5.e-3	3.77e-5
GW	1008	1	2.e-3	1.e-3	-5.e-3	2.5e-3	1.e-3	-5.e-3	3.77e-5
GW	1009	1	2.5e-3	1.e-3	-5.e-3	3.e-3	1.e-3	-5.e-3	3.77e-5
GW	1010	1	3.e-3	1.e-3	-5.e-3	3.5e-3	1.e-3	-5.e-3	3.77e-5
GW	1011	1	3.5e-3	1.e-3	-5.e-3	4.e-3	1.e-3	-5.e-3	3.77e-5
GW	1012	1	4.e-3	1.e-3	-5.e-3	4.5e-3	1.e-3	-5.e-3	3.77e-5
GW	1013	1	-4.5e-3	5.e-4	-5.e-3	-4.e-3	5.e-4	-5.e-3	3.77e-5
GW	1014	1	-4.e-3	5.e-4	-5.e-3	-3.5e-3	5.e-4	-5.e-3	3.77e-5
GW	1015	1	-3.5e-3	5.e-4	-5.e-3	-3.e-3	5.e-4	-5.e-3	3.77e-5
GW	1016	1	-3.e-3	5.e-4	-5.e-3	-2.5e-3	5.e-4	-5.e-3	3.77e-5
GW	1017	1	-2.5e-3	5.e-4	-5.e-3	-2.e-3	5.e-4	-5.e-3	3.77e-5
GW	1018	1	-2.e-3	5.e-4	-5.e-3	-1.5e-3	5.e-4	-5.e-3	3.77e-5
GW	1019	1	-1.5e-3	5.e-4	-5.e-3	-1.e-3	5.e-4	-5.e-3	3.77e-5
GW	1020	1	-1.e-3	5.e-4	-5.e-3	-5.e-4	5.e-4	-5.e-3	3.77e-5
GW	1021	1	-5.e-4	5.e-4	-5.e-3	0	5.e-4	-5.e-3	3.77e-5
GW	1022	1	0	5.e-4	-5.e-3	5.e-4	5.e-4	-5.e-3	3.77e-5
GW	1023	1	5.e-4	5.e-4	-5.e-3	1.e-3	5.e-4	-5.e-3	3.77e-5
GW	1024	1	1.e-3	5.e-4	-5.e-3	1.5e-3	5.e-4	-5.e-3	3.77e-5
GW	1025	1	1.5e-3	5.e-4	-5.e-3	2.e-3	5.e-4	-5.e-3	3.77e-5
GW	1026	1	2.e-3	5.e-4	-5.e-3	2.5e-3	5.e-4	-5.e-3	3.77e-5
GW	1027	1	2.5e-3	5.e-4	-5.e-3	3.e-3	5.e-4	-5.e-3	3.77e-5
GW	1028	1	3.e-3	5.e-4	-5.e-3	3.5e-3	5.e-4	-5.e-3	3.77e-5
GW	1029	1	3.5e-3	5.e-4	-5.e-3	4.e-3	5.e-4	-5.e-3	3.77e-5
GW	1030	1	4.e-3	5.e-4	-5.e-3	4.5e-3	5.e-4	-5.e-3	3.77e-5
GW	1031	1	-4.5e-3	8.2661e-19	-5.e-3	-4.e-3	7.3476e-19	-5.e-3	3.77e-5
GW	1032	1	-4.e-3	7.3476e-19	-5.e-3	-3.5e-3	6.4292e-19	-5.e-3	3.77e-5
GW	1033	1	-3.5e-3	6.4292e-19	-5.e-3	-3.e-3	5.5107e-19	-5.e-3	3.77e-5
GW	1034	1	-3.e-3	5.5107e-19	-5.e-3	-2.5e-3	4.5923e-19	-5.e-3	3.77e-5
GW	1035	1	-2.5e-3	4.5923e-19	-5.e-3	-2.e-3	3.6738e-19	-5.e-3	3.77e-5
GW	1036	1	-2.e-3	3.6738e-19	-5.e-3	-1.5e-3	2.7554e-19	-5.e-3	3.77e-5
GW	1037	1	-1.5e-3	2.7554e-19	-5.e-3	-1.e-3	1.8369e-19	-5.e-3	3.77e-5
GW	1038	1	-1.e-3	1.8369e-19	-5.e-3	-5.e-4	9.1845e-20	-5.e-3	3.77e-5
GW	1039	1	-5.e-4	9.1845e-20	-5.e-3	0	0	-5.e-3	3.77e-5
GW	1040	1	0	0	-5.e-3	5.e-4	-9.185e-20	-5.e-3	3.77e-5
GW	1041	1	5.e-4	-9.185e-20	-5.e-3	1.e-3	-1.837e-19	-5.e-3	3.77e-5
GW	1042	1	1.e-3	-1.837e-19	-5.e-3	1.5e-3	-2.755e-19	-5.e-3	3.77e-5
GW	1043	1	1.5e-3	-2.755e-19	-5.e-3	2.e-3	-3.674e-19	-5.e-3	3.77e-5
GW	1044	1	2.e-3	-3.674e-19	-5.e-3	2.5e-3	-4.592e-19	-5.e-3	3.77e-5
GW	1045	1	2.5e-3	-4.592e-19	-5.e-3	3.e-3	-5.511e-19	-5.e-3	3.77e-5
GW	1046	1	3.e-3	-5.511e-19	-5.e-3	3.5e-3	-6.429e-19	-5.e-3	3.77e-5
GW	1047	1	3.5e-3	-6.429e-19	-5.e-3	4.e-3	-7.348e-19	-5.e-3	3.77e-5
GW	1048	1	4.e-3	-7.348e-19	-5.e-3	4.5e-3	-8.266e-19	-5.e-3	3.77e-5
GW	1049	1	-4.5e-3	-5.e-4	-5.e-3	-4.e-3	-5.e-4	-5.e-3	3.77e-5
GW	1050	1	-4.e-3	-5.e-4	-5.e-3	-3.5e-3	-5.e-4	-5.e-3	3.77e-5
GW	1051	1	-3.5e-3	-5.e-4	-5.e-3	-3.e-3	-5.e-4	-5.e-3	3.77e-5
GW	1052	1	-3.e-3	-5.e-4	-5.e-3	-2.5e-3	-5.e-4	-5.e-3	3.77e-5
GW	1053	1	-2.5e-3	-5.e-4	-5.e-3	-2.e-3	-5.e-4	-5.e-3	3.77e-5
GW	1054	1	-2.e-3	-5.e-4	-5.e-3	-1.5e-3	-5.e-4	-5.e-3	3.77e-5
GW	1055	1	-1.5e-3	-5.e-4	-5.e-3	-1.e-3	-5.e-4	-5.e-3	3.77e-5
GW	1056	1	-1.e-3	-5.e-4	-5.e-3	-5.e-4	-5.e-4	-5.e-3	3.77e-5
GW	1057	1	-5.e-4	-5.e-4	-5.e-3	0	-5.e-4	-5.e-3	3.77e-5
GW	1058	1	0	-5.e-4	-5.e-3	5.e-4	-5.e-4	-5.e-3	3.77e-5
GW	1059	1	5.e-4	-5.e-4	-5.e-3	1.e-3	-5.e-4	-5.e-3	3.77e-5
GW	1060	1	1.e-3	-5.e-4	-5.e-3	1.5e-3	-5.e-4	-5.e-3	3.77e-5
GW	1061	1	1.5e-3	-5.e-4	-5.e-3	2.e-3	-5.e-4	-5.e-3	3.77e-5
GW	1062	1	2.e-3	-5.e-4	-5.e-3	2.5e-3	-5.e-4	-5.e-3	3.77e-5
GW	1063	1	2.5e-3	-5.e-4	-5.e-3	3.e-3	-5.e-4	-5.e-3	3.77e-5
GW	1064	1	3.e-3	-5.e-4	-5.e-3	3.5e-3	-5.e-4	-5.e-3	3.77e-5
GW	1065	1	3.5e-3	-5.e-4	-5.e-3	4.e-3	-5.e-4	-5.e-3	3.77e-5
GW	1066	1	4.e-3	-5.e-4	-5.e-3	4.5e-3	-5.e-4	-5.e-3	3.77e-5
GW	1067	1	-4.5e-3	-1.e-3	-5.e-3	-4.e-3	-1.e-3	-5.e-3	3.77e-5
GW	1068	1	-4.e-3	-1.e-3	-5.e-3	-3.5e-3	-1.e-3	-5.e-3	3.77e-5
GW	1069	1	-3.5e-3	-1.e-3	-5.e-3	-3.e-3	-1.e-3	-5.e-3	3.77e-5
GW	1070	1	-3.e-3	-1.e-3	-5.e-3	-2.5e-3	-1.e-3	-5.e-3	3.77e-5
GW	1071	1	-2.5e-3	-1.e-3	-5.e-3	-2.e-3	-1.e-3	-5.e-3	3.77e-5
GW	1072	1	-2.e-3	-1.e-3	-5.e-3	-1.5e-3	-1.e-3	-5.e-3	3.77e-5
GW	1073	1	-1.5e-3	-1.e-3	-5.e-3	-1.e-3	-1.e-3	-5.e-3	3.77e-5
GW	1074	1	-1.e-3	-1.e-3	-5.e-3	-5.e-4	-1.e-3	-5.e-3	3.77e-5
GW	1075	1	-5.e-4	-1.e-3	-5.e-3	0	-1.e-3	-5.e-3	3.77e-5
GW	1076	1	0	-1.e-3	-5.e-3	5.e-4	-1.e-3	-5.e-3	3.77e-5
GW	1077	1	5.e-4	-1.e-3	-5.e-3	1.e-3	-1.e-3	-5.e-3	3.77e-5
GW	1078	1	1.e-3	-1.e-3	-5.e-3	1.5e-3	-1.e-3	-5.e-3	3.77e-5
GW	1079	1	1.5e-3	-1.e-3	-5.e-3	2.e-3	-1.e-3	-5.e-3	3.77e-5
GW	1080	1	2.e-3	-1.e-3	-5.e-3	2.5e-3	-1.e-3	-5.e-3	3.77e-5
GW	1081	1	2.5e-3	-1.e-3	-5.e-3	3.e-3	-1.e-3	-5.e-3	3.77e-5
GW	1082	1	3.e-3	-1.e-3	-5.e-3	3.5e-3	-1.e-3	-5.e-3	3.77e-5
GW	1083	1	3.5e-3	-1.e-3	-5.e-3	4.e-3	-1.e-3	-5.e-3	3.77e-5
GW	1084	1	4.e-3	-1.e-3	-5.e-3	4.5e-3	-1.e-3	-5.e-3	3.77e-5
GW	1085	1	-4.5e-3	-1.5e-3	-5.e-3	-4.e-3	-1.5e-3	-5.e-3	3.77e-5
GW	1086	1	-4.e-3	-1.5e-3	-5.e-3	-3.5e-3	-1.5e-3	-5.e-3	3.77e-5
GW	1087	1	-3.5e-3	-1.5e-3	-5.e-3	-3.e-3	-1.5e-3	-5.e-3	3.77e-5
GW	1088	1	-3.e-3	-1.5e-3	-5.e-3	-2.5e-3	-1.5e-3	-5.e-3	3.77e-5
GW	1089	1	-2.5e-3	-1.5e-3	-5.e-3	-2.e-3	-1.5e-3	-5.e-3	3.77e-5
GW	1090	1	-2.e-3	-1.5e-3	-5.e-3	-1.5e-3	-1.5e-3	-5.e-3	3.77e-5
GW	1091	1	-1.5e-3	-1.5e-3	-5.e-3	-1.e-3	-1.5e-3	-5.e-3	3.77e-5
GW	1092	1	-1.e-3	-1.5e-3	-5.e-3	-5.e-4	-1.5e-3	-5.e-3	3.77e-5
GW	1093	1	-5.e-4	-1.5e-3	-5.e-3	0	-1.5e-3	-5.e-3	3.77e-5
GW	1094	1	0	-1.5e-3	-5.e-3	5.e-4	-1.5e-3	-5.e-3	3.77e-5
GW	1095	1	5.e-4	-1.5e-3	-5.e-3	1.e-3	-1.5e-3	-5.e-3	3.77e-5
GW	1096	1	1.e-3	-1.5e-3	-5.e-3	1.5e-3	-1.5e-3	-5.e-3	3.77e-5
GW	1097	1	1.5e-3	-1.5e-3	-5.e-3	2.e-3	-1.5e-3	-5.e-3	3.77e-5
GW	1098	1	2.e-3	-1.5e-3	-5.e-3	2.5e-3	-1.5e-3	-5.e-3	3.77e-5
GW	1099	1	2.5e-3	-1.5e-3	-5.e-3	3.e-3	-1.5e-3	-5.e-3	3.77e-5
GW	1100	1	3.e-3	-1.5e-3	-5.e-3	3.5e-3	-1.5e-3	-5.e-3	3.77e-5
GW	1101	1	3.5e-3	-1.5e-3	-5.e-3	4.e-3	-1.5e-3	-5.e-3	3.77e-5
GW	1102	1	4.e-3	-1.5e-3	-5.e-3	4.5e-3	-1.5e-3	-5.e-3	3.77e-5
GW	1103	1	-4.5e-3	-2.e-3	-5.e-3	-4.e-3	-2.e-3	-5.e-3	3.77e-5
GW	1104	1	-4.e-3	-2.e-3	-5.e-3	-3.5e-3	-2.e-3	-5.e-3	3.77e-5
GW	1105	1	-3.5e-3	-2.e-3	-5.e-3	-3.e-3	-2.e-3	-5.e-3	3.77e-5
GW	1106	1	-3.e-3	-2.e-3	-5.e-3	-2.5e-3	-2.e-3	-5.e-3	3.77e-5
GW	1107	1	-2.5e-3	-2.e-3	-5.e-3	-2.e-3	-2.e-3	-5.e-3	3.77e-5
GW	1108	1	-2.e-3	-2.e-3	-5.e-3	-1.5e-3	-2.e-3	-5.e-3	3.77e-5
GW	1109	1	-1.5e-3	-2.e-3	-5.e-3	-1.e-3	-2.e-3	-5.e-3	3.77e-5
GW	1110	1	-1.e-3	-2.e-3	-5.e-3	-5.e-4	-2.e-3	-5.e-3	3.77e-5
GW	1111	1	-5.e-4	-2.e-3	-5.e-3	0	-2.e-3	-5.e-3	3.77e-5
GW	1112	1	0	-2.e-3	-5.e-3	5.e-4	-2.e-3	-5.e-3	3.77e-5
GW	1113	1	5.e-4	-2.e-3	-5.e-3	1.e-3	-2.e-3	-5.e-3	3.77e-5
GW	1114	1	1.e-3	-2.e-3	-5.e-3	1.5e-3	-2.e-3	-5.e-3	3.77e-5
GW	1115	1	1.5e-3	-2.e-3	-5.e-3	2.e-3	-2.e-3	-5.e-3	3.77e-5
GW	1116	1	2.e-3	-2.e-3	-5.e-3	2.5e-3	-2.e-3	-5.e-3	3.77e-5
GW	1117	1	2.5e-3	-2.e-3	-5.e-3	3.e-3	-2.e-3	-5.e-3	3.77e-5
GW	1118	1	3.e-3	-2.e-3	-5.e-3	3.5e-3	-2.e-3	-5.e-3	3.77e-5
GW	1119	1	3.5e-3	-2.e-3	-5.e-3	4.e-3	-2.e-3	-5.e-3	3.77e-5
GW	1120	1	4.e-3	-2.e-3	-5.e-3	4.5e-3	-2.e-3	-5.e-3	3.77e-5
GW	1121	1	-4.5e-3	-2.5e-3	-5.e-3	-4.e-3	-2.5e-3	-5.e-3	3.77e-5
GW	1122	1	-4.e-3	-2.5e-3	-5.e-3	-3.5e-3	-2.5e-3	-5.e-3	3.77e-5
GW	1123	1	-3.5e-3	-2.5e-3	-5.e-3	-3.e-3	-2.5e-3	-5.e-3	3.77e-5
GW	1124	1	-3.e-3	-2.5e-3	-5.e-3	-2.5e-3	-2.5e-3	-5.e-3	3.77e-5
GW	1125	1	-2.5e-3	-2.5e-3	-5.e-3	-2.e-3	-2.5e-3	-5.e-3	3.77e-5
GW	1126	1	-2.e-3	-2.5e-3	-5.e-3	-1.5e-3	-2.5e-3	-5.e-3	3.77e-5
GW	1127	1	-1.5e-3	-2.5e-3	-5.e-3	-1.e-3	-2.5e-3	-5.e-3	3.77e-5
GW	1128	1	-1.e-3	-2.5e-3	-5.e-3	-5.e-4	-2.5e-3	-5.e-3	3.77e-5
GW	1129	1	-5.e-4	-2.5e-3	-5.e-3	-8.674e-19	-2.5e-3	-5.e-3	3.77e-5
GW	1130	1	-8.674e-19	-2.5e-3	-5.e-3	5.e-4	-2.5e-3	-5.e-3	3.77e-5
GW	1131	1	5.e-4	-2.5e-3	-5.e-3	1.e-3	-2.5e-3	-5.e-3	3.77e-5
GW	1132	1	1.e-3	-2.5e-3	-5.e-3	1.5e-3	-2.5e-3	-5.e-3	3.77e-5
GW	1133	1	1.5e-3	-2.5e-3	-5.e-3	2.e-3	-2.5e-3	-5.e-3	3.77e-5
GW	1134	1	2.e-3	-2.5e-3	-5.e-3	2.5e-3	-2.5e-3	-5.e-3	3.77e-5
GW	1135	1	2.5e-3	-2.5e-3	-5.e-3	3.e-3	-2.5e-3	-5.e-3	3.77e-5
GW	1136	1	3.e-3	-2.5e-3	-5.e-3	3.5e-3	-2.5e-3	-5.e-3	3.77e-5
GW	1137	1	3.5e-3	-2.5e-3	-5.e-3	4.e-3	-2.5e-3	-5.e-3	3.77e-5
GW	1138	1	4.e-3	-2.5e-3	-5.e-3	4.5e-3	-2.5e-3	-5.e-3	3.77e-5
GW	1139	1	-4.5e-3	-3.e-3	-5.e-3	-4.e-3	-3.e-3	-5.e-3	3.77e-5
GW	1140	1	-4.e-3	-3.e-3	-5.e-3	-3.5e-3	-3.e-3	-5.e-3	3.77e-5
GW	1141	1	-3.5e-3	-3.e-3	-5.e-3	-3.e-3	-3.e-3	-5.e-3	3.77e-5
GW	1142	1	-3.e-3	-3.e-3	-5.e-3	-2.5e-3	-3.e-3	-5.e-3	3.77e-5
GW	1143	1	-2.5e-3	-3.e-3	-5.e-3	-2.e-3	-3.e-3	-5.e-3	3.77e-5
GW	1144	1	-2.e-3	-3.e-3	-5.e-3	-1.5e-3	-3.e-3	-5.e-3	3.77e-5
GW	1145	1	-1.5e-3	-3.e-3	-5.e-3	-1.e-3	-3.e-3	-5.e-3	3.77e-5
GW	1146	1	-1.e-3	-3.e-3	-5.e-3	-5.e-4	-3.e-3	-5.e-3	3.77e-5
GW	1147	1	-5.e-4	-3.e-3	-5.e-3	-8.674e-19	-3.e-3	-5.e-3	3.77e-5
GW	1148	1	-8.674e-19	-3.e-3	-5.e-3	5.e-4	-3.e-3	-5.e-3	3.77e-5
GW	1149	1	5.e-4	-3.e-3	-5.e-3	1.e-3	-3.e-3	-5.e-3	3.77e-5
GW	1150	1	1.e-3	-3.e-3	-5.e-3	1.5e-3	-3.e-3	-5.e-3	3.77e-5
GW	1151	1	1.5e-3	-3.e-3	-5.e-3	2.e-3	-3.e-3	-5.e-3	3.77e-5
GW	1152	1	2.e-3	-3.e-3	-5.e-3	2.5e-3	-3.e-3	-5.e-3	3.77e-5
GW	1153	1	2.5e-3	-3.e-3	-5.e-3	3.e-3	-3.e-3	-5.e-3	3.77e-5
GW	1154	1	3.e-3	-3.e-3	-5.e-3	3.5e-3	-3.e-3	-5.e-3	3.77e-5
GW	1155	1	3.5e-3	-3.e-3	-5.e-3	4.e-3	-3.e-3	-5.e-3	3.77e-5
GW	1156	1	4.e-3	-3.e-3	-5.e-3	4.5e-3	-3.e-3	-5.e-3	3.77e-5
GW	1157	1	-4.5e-3	-3.5e-3	-5.e-3	-4.e-3	-3.5e-3	-5.e-3	3.77e-5
GW	1158	1	-4.e-3	-3.5e-3	-5.e-3	-3.5e-3	-3.5e-3	-5.e-3	3.77e-5
GW	1159	1	-3.5e-3	-3.5e-3	-5.e-3	-3.e-3	-3.5e-3	-5.e-3	3.77e-5
GW	1160	1	-3.e-3	-3.5e-3	-5.e-3	-2.5e-3	-3.5e-3	-5.e-3	3.77e-5
GW	1161	1	-2.5e-3	-3.5e-3	-5.e-3	-2.e-3	-3.5e-3	-5.e-3	3.77e-5
GW	1162	1	-2.e-3	-3.5e-3	-5.e-3	-1.5e-3	-3.5e-3	-5.e-3	3.77e-5
GW	1163	1	-1.5e-3	-3.5e-3	-5.e-3	-1.e-3	-3.5e-3	-5.e-3	3.77e-5
GW	1164	1	-1.e-3	-3.5e-3	-5.e-3	-5.e-4	-3.5e-3	-5.e-3	3.77e-5
GW	1165	1	-5.e-4	-3.5e-3	-5.e-3	-8.674e-19	-3.5e-3	-5.e-3	3.77e-5
GW	1166	1	-8.674e-19	-3.5e-3	-5.e-3	5.e-4	-3.5e-3	-5.e-3	3.77e-5
GW	1167	1	5.e-4	-3.5e-3	-5.e-3	1.e-3	-3.5e-3	-5.e-3	3.77e-5
GW	1168	1	1.e-3	-3.5e-3	-5.e-3	1.5e-3	-3.5e-3	-5.e-3	3.77e-5
GW	1169	1	1.5e-3	-3.5e-3	-5.e-3	2.e-3	-3.5e-3	-5.e-3	3.77e-5
GW	1170	1	2.e-3	-3.5e-3	-5.e-3	2.5e-3	-3.5e-3	-5.e-3	3.77e-5
GW	1171	1	2.5e-3	-3.5e-3	-5.e-3	3.e-3	-3.5e-3	-5.e-3	3.77e-5
GW	1172	1	3.e-3	-3.5e-3	-5.e-3	3.5e-3	-3.5e-3	-5.e-3	3.77e-5
GW	1173	1	3.5e-3	-3.5e-3	-5.e-3	4.e-3	-3.5e-3	-5.e-3	3.77e-5
GW	1174	1	4.e-3	-3.5e-3	-5.e-3	4.5e-3	-3.5e-3	-5.e-3	3.77e-5
GW	1175	1	-4.5e-3	-4.e-3	-5.e-3	-4.e-3	-4.e-3	-5.e-3	3.77e-5
GW	1176	1	-4.e-3	-4.e-3	-5.e-3	-3.5e-3	-4.e-3	-5.e-3	3.77e-5
GW	1177	1	-3.5e-3	-4.e-3	-5.e-3	-3.e-3	-4.e-3	-5.e-3	3.77e-5
GW	1178	1	-3.e-3	-4.e-3	-5.e-3	-2.5e-3	-4.e-3	-5.e-3	3.77e-5
GW	1179	1	-2.5e-3	-4.e-3	-5.e-3	-2.e-3	-4.e-3	-5.e-3	3.77e-5
GW	1180	1	-2.e-3	-4.e-3	-5.e-3	-1.5e-3	-4.e-3	-5.e-3	3.77e-5
GW	1181	1	-1.5e-3	-4.e-3	-5.e-3	-1.e-3	-4.e-3	-5.e-3	3.77e-5
GW	1182	1	-1.e-3	-4.e-3	-5.e-3	-5.e-4	-4.e-3	-5.e-3	3.77e-5
GW	1183	1	-5.e-4	-4.e-3	-5.e-3	-8.674e-19	-4.e-3	-5.e-3	3.77e-5
GW	1184	1	-8.674e-19	-4.e-3	-5.e-3	5.e-4	-4.e-3	-5.e-3	3.77e-5
GW	1185	1	5.e-4	-4.e-3	-5.e-3	1.e-3	-4.e-3	-5.e-3	3.77e-5
GW	1186	1	1.e-3	-4.e-3	-5.e-3	1.5e-3	-4.e-3	-5.e-3	3.77e-5
GW	1187	1	1.5e-3	-4.e-3	-5.e-3	2.e-3	-4.e-3	-5.e-3	3.77e-5
GW	1188	1	2.e-3	-4.e-3	-5.e-3	2.5e-3	-4.e-3	-5.e-3	3.77e-5
GW	1189	1	2.5e-3	-4.e-3	-5.e-3	3.e-3	-4.e-3	-5.e-3	3.77e-5
GW	1190	1	3.e-3	-4.e-3	-5.e-3	3.5e-3	-4.e-3	-5.e-3	3.77e-5
GW	1191	1	3.5e-3	-4.e-3	-5.e-3	4.e-3	-4.e-3	-5.e-3	3.77e-5
GW	1192	1	4.e-3	-4.e-3	-5.e-3	4.5e-3	-4.e-3	-5.e-3	3.77e-5
GW	1193	1	-4.5e-3	-4.5e-3	-5.e-3	-4.e-3	-4.5e-3	-5.e-3	3.77e-5
GW	1194	1	-4.e-3	-4.5e-3	-5.e-3	-3.5e-3	-4.5e-3	-5.e-3	3.77e-5
GW	1195	1	-3.5e-3	-4.5e-3	-5.e-3	-3.e-3	-4.5e-3	-5.e-3	3.77e-5
GW	1196	1	-3.e-3	-4.5e-3	-5.e-3	-2.5e-3	-4.5e-3	-5.e-3	3.77e-5
GW	1197	1	-2.5e-3	-4.5e-3	-5.e-3	-2.e-3	-4.5e-3	-5.e-3	3.77e-5
GW	1198	1	-2.e-3	-4.5e-3	-5.e-3	-1.5e-3	-4.5e-3	-5.e-3	3.77e-5
GW	1199	1	-1.5e-3	-4.5e-3	-5.e-3	-1.e-3	-4.5e-3	-5.e-3	3.77e-5
GW	1200	1	-1.e-3	-4.5e-3	-5.e-3	-5.e-4	-4.5e-3	-5.e-3	3.77e-5
GW	1201	1	-5.e-4	-4.5e-3	-5.e-3	-8.674e-19	-4.5e-3	-5.e-3	3.77e-5
GW	1202	1	-8.674e-19	-4.5e-3	-5.e-3	5.e-4	-4.5e-3	-5.e-3	3.77e-5
GW	1203	1	5.e-4	-4.5e-3	-5.e-3	1.e-3	-4.5e-3	-5.e-3	3.77e-5
GW	1204	1	1.e-3	-4.5e-3	-5.e-3	1.5e-3	-4.5e-3	-5.e-3	3.77e-5
GW	1205	1	1.5e-3	-4.5e-3	-5.e-3	2.e-3	-4.5e-3	-5.e-3	3.77e-5
GW	1206	1	2.e-3	-4.5e-3	-5.e-3	2.5e-3	-4.5e-3	-5.e-3	3.77e-5
GW	1207	1	2.5e-3	-4.5e-3	-5.e-3	3.e-3	-4.5e-3	-5.e-3	3.77e-5
GW	1208	1	3.e-3	-4.5e-3	-5.e-3	3.5e-3	-4.5e-3	-5.e-3	3.77e-5
GW	1209	1	3.5e-3	-4.5e-3	-5.e-3	4.e-3	-4.5e-3	-5.e-3	3.77e-5
GW	1210	1	4.e-3	-4.5e-3	-5.e-3	4.5e-3	-4.5e-3	-5.e-3	3.77e-5
GW	1211	1	-4.5e-3	4.5e-3	-5.e-3	-4.5e-3	4.e-3	-5.e-3	3.77e-5
GW	1212	1	-4.5e-3	4.e-3	-5.e-3	-4.5e-3	3.5e-3	-5.e-3	3.77e-5
GW	1213	1	-4.5e-3	3.5e-3	-5.e-3	-4.5e-3	3.e-3	-5.e-3	3.77e-5
GW	1214	1	-4.5e-3	3.e-3	-5.e-3	-4.5e-3	2.5e-3	-5.e-3	3.77e-5
GW	1215	1	-4.5e-3	2.5e-3	-5.e-3	-4.5e-3	2.e-3	-5.e-3	3.77e-5
GW	1216	1	-4.5e-3	2.e-3	-5.e-3	-4.5e-3	1.5e-3	-5.e-3	3.77e-5
GW	1217	1	-4.5e-3	1.5e-3	-5.e-3	-4.5e-3	1.e-3	-5.e-3	3.77e-5
GW	1218	1	-4.5e-3	1.e-3	-5.e-3	-4.5e-3	5.e-4	-5.e-3	3.77e-5
GW	1219	1	-4.5e-3	5.e-4	-5.e-3	-4.5e-3	8.6736e-19	-5.e-3	3.77e-5
GW	1220	1	-4.5e-3	8.6736e-19	-5.e-3	-4.5e-3	-5.e-4	-5.e-3	3.77e-5
GW	1221	1	-4.5e-3	-5.e-4	-5.e-3	-4.5e-3	-1.e-3	-5.e-3	3.77e-5
GW	1222	1	-4.5e-3	-1.e-3	-5.e-3	-4.5e-3	-1.5e-3	-5.e-3	3.77e-5
GW	1223	1	-4.5e-3	-1.5e-3	-5.e-3	-4.5e-3	-2.e-3	-5.e-3	3.77e-5
GW	1224	1	-4.5e-3	-2.e-3	-5.e-3	-4.5e-3	-2.5e-3	-5.e-3	3.77e-5
GW	1225	1	-4.5e-3	-2.5e-3	-5.e-3	-4.5e-3	-3.e-3	-5.e-3	3.77e-5
GW	1226	1	-4.5e-3	-3.e-3	-5.e-3	-4.5e-3	-3.5e-3	-5.e-3	3.77e-5
GW	1227	1	-4.5e-3	-3.5e-3	-5.e-3	-4.5e-3	-4.e-3	-5.e-3	3.77e-5
GW	1228	1	-4.5e-3	-4.e-3	-5.e-3	-4.5e-3	-4.5e-3	-5.e-3	3.77e-5
GW	1229	1	-4.e-3	4.5e-3	-5.e-3	-4.e-3	4.e-3	-5.e-3	3.77e-5
GW	1230	1	-4.e-3	4.e-3	-5.e-3	-4.e-3	3.5e-3	-5.e-3	3.77e-5
GW	1231	1	-4.e-3	3.5e-3	-5.e-3	-4.e-3	3.e-3	-5.e-3	3.77e-5
GW	1232	1	-4.e-3	3.e-3	-5.e-3	-4.e-3	2.5e-3	-5.e-3	3.77e-5
GW	1233	1	-4.e-3	2.5e-3	-5.e-3	-4.e-3	2.e-3	-5.e-3	3.77e-5
GW	1234	1	-4.e-3	2.e-3	-5.e-3	-4.e-3	1.5e-3	-5.e-3	3.77e-5
GW	1235	1	-4.e-3	1.5e-3	-5.e-3	-4.e-3	1.e-3	-5.e-3	3.77e-5
GW	1236	1	-4.e-3	1.e-3	-5.e-3	-4.e-3	5.e-4	-5.e-3	3.77e-5
GW	1237	1	-4.e-3	5.e-4	-5.e-3	-4.e-3	8.6736e-19	-5.e-3	3.77e-5
GW	1238	1	-4.e-3	8.6736e-19	-5.e-3	-4.e-3	-5.e-4	-5.e-3	3.77e-5
GW	1239	1	-4.e-3	-5.e-4	-5.e-3	-4.e-3	-1.e-3	-5.e-3	3.77e-5
GW	1240	1	-4.e-3	-1.e-3	-5.e-3	-4.e-3	-1.5e-3	-5.e-3	3.77e-5
GW	1241	1	-4.e-3	-1.5e-3	-5.e-3	-4.e-3	-2.e-3	-5.e-3	3.77e-5
GW	1242	1	-4.e-3	-2.e-3	-5.e-3	-4.e-3	-2.5e-3	-5.e-3	3.77e-5
GW	1243	1	-4.e-3	-2.5e-3	-5.e-3	-4.e-3	-3.e-3	-5.e-3	3.77e-5
GW	1244	1	-4.e-3	-3.e-3	-5.e-3	-4.e-3	-3.5e-3	-5.e-3	3.77e-5
GW	1245	1	-4.e-3	-3.5e-3	-5.e-3	-4.e-3	-4.e-3	-5.e-3	3.77e-5
GW	1246	1	-4.e-3	-4.e-3	-5.e-3	-4.e-3	-4.5e-3	-5.e-3	3.77e-5
GW	1247	1	-3.5e-3	4.5e-3	-5.e-3	-3.5e-3	4.e-3	-5.e-3	3.77e-5
GW	1248	1	-3.5e-3	4.e-3	-5.e-3	-3.5e-3	3.5e-3	-5.e-3	3.77e-5
GW	1249	1	-3.5e-3	3.5e-3	-5.e-3	-3.5e-3	3.e-3	-5.e-3	3.77e-5
GW	1250	1	-3.5e-3	3.e-3	-5.e-3	-3.5e-3	2.5e-3	-5.e-3	3.77e-5
GW	1251	1	-3.5e-3	2.5e-3	-5.e-3	-3.5e-3	2.e-3	-5.e-3	3.77e-5
GW	1252	1	-3.5e-3	2.e-3	-5.e-3	-3.5e-3	1.5e-3	-5.e-3	3.77e-5
GW	1253	1	-3.5e-3	1.5e-3	-5.e-3	-3.5e-3	1.e-3	-5.e-3	3.77e-5
GW	1254	1	-3.5e-3	1.e-3	-5.e-3	-3.5e-3	5.e-4	-5.e-3	3.77e-5
GW	1255	1	-3.5e-3	5.e-4	-5.e-3	-3.5e-3	8.6736e-19	-5.e-3	3.77e-5
GW	1256	1	-3.5e-3	8.6736e-19	-5.e-3	-3.5e-3	-5.e-4	-5.e-3	3.77e-5
GW	1257	1	-3.5e-3	-5.e-4	-5.e-3	-3.5e-3	-1.e-3	-5.e-3	3.77e-5
GW	1258	1	-3.5e-3	-1.e-3	-5.e-3	-3.5e-3	-1.5e-3	-5.e-3	3.77e-5
GW	1259	1	-3.5e-3	-1.5e-3	-5.e-3	-3.5e-3	-2.e-3	-5.e-3	3.77e-5
GW	1260	1	-3.5e-3	-2.e-3	-5.e-3	-3.5e-3	-2.5e-3	-5.e-3	3.77e-5
GW	1261	1	-3.5e-3	-2.5e-3	-5.e-3	-3.5e-3	-3.e-3	-5.e-3	3.77e-5
GW	1262	1	-3.5e-3	-3.e-3	-5.e-3	-3.5e-3	-3.5e-3	-5.e-3	3.77e-5
GW	1263	1	-3.5e-3	-3.5e-3	-5.e-3	-3.5e-3	-4.e-3	-5.e-3	3.77e-5
GW	1264	1	-3.5e-3	-4.e-3	-5.e-3	-3.5e-3	-4.5e-3	-5.e-3	3.77e-5
GW	1265	1	-3.e-3	4.5e-3	-5.e-3	-3.e-3	4.e-3	-5.e-3	3.77e-5
GW	1266	1	-3.e-3	4.e-3	-5.e-3	-3.e-3	3.5e-3	-5.e-3	3.77e-5
GW	1267	1	-3.e-3	3.5e-3	-5.e-3	-3.e-3	3.e-3	-5.e-3	3.77e-5
GW	1268	1	-3.e-3	3.e-3	-5.e-3	-3.e-3	2.5e-3	-5.e-3	3.77e-5
GW	1269	1	-3.e-3	2.5e-3	-5.e-3	-3.e-3	2.e-3	-5.e-3	3.77e-5
GW	1270	1	-3.e-3	2.e-3	-5.e-3	-3.e-3	1.5e-3	-5.e-3	3.77e-5
GW	1271	1	-3.e-3	1.5e-3	-5.e-3	-3.e-3	1.e-3	-5.e-3	3.77e-5
GW	1272	1	-3.e-3	1.e-3	-5.e-3	-3.e-3	5.e-4	-5.e-3	3.77e-5
GW	1273	1	-3.e-3	5.e-4	-5.e-3	-3.e-3	8.6736e-19	-5.e-3	3.77e-5
GW	1274	1	-3.e-3	8.6736e-19	-5.e-3	-3.e-3	-5.e-4	-5.e-3	3.77e-5
GW	1275	1	-3.e-3	-5.e-4	-5.e-3	-3.e-3	-1.e-3	-5.e-3	3.77e-5
GW	1276	1	-3.e-3	-1.e-3	-5.e-3	-3.e-3	-1.5e-3	-5.e-3	3.77e-5
GW	1277	1	-3.e-3	-1.5e-3	-5.e-3	-3.e-3	-2.e-3	-5.e-3	3.77e-5
GW	1278	1	-3.e-3	-2.e-3	-5.e-3	-3.e-3	-2.5e-3	-5.e-3	3.77e-5
GW	1279	1	-3.e-3	-2.5e-3	-5.e-3	-3.e-3	-3.e-3	-5.e-3	3.77e-5
GW	1280	1	-3.e-3	-3.e-3	-5.e-3	-3.e-3	-3.5e-3	-5.e-3	3.77e-5
GW	1281	1	-3.e-3	-3.5e-3	-5.e-3	-3.e-3	-4.e-3	-5.e-3	3.77e-5
GW	1282	1	-3.e-3	-4.e-3	-5.e-3	-3.e-3	-4.5e-3	-5.e-3	3.77e-5
GW	1283	1	-2.5e-3	4.5e-3	-5.e-3	-2.5e-3	4.e-3	-5.e-3	3.77e-5
GW	1284	1	-2.5e-3	4.e-3	-5.e-3	-2.5e-3	3.5e-3	-5.e-3	3.77e-5
GW	1285	1	-2.5e-3	3.5e-3	-5.e-3	-2.5e-3	3.e-3	-5.e-3	3.77e-5
GW	1286	1	-2.5e-3	3.e-3	-5.e-3	-2.5e-3	2.5e-3	-5.e-3	3.77e-5
GW	1287	1	-2.5e-3	2.5e-3	-5.e-3	-2.5e-3	2.e-3	-5.e-3	3.77e-5
GW	1288	1	-2.5e-3	2.e-3	-5.e-3	-2.5e-3	1.5e-3	-5.e-3	3.77e-5
GW	1289	1	-2.5e-3	1.5e-3	-5.e-3	-2.5e-3	1.e-3	-5.e-3	3.77e-5
GW	1290	1	-2.5e-3	1.e-3	-5.e-3	-2.5e-3	5.e-4	-5.e-3	3.77e-5
GW	1291	1	-2.5e-3	5.e-4	-5.e-3	-2.5e-3	8.6736e-19	-5.e-3	3.77e-5
GW	1292	1	-2.5e-3	8.6736e-19	-5.e-3	-2.5e-3	-5.e-4	-5.e-3	3.77e-5
GW	1293	1	-2.5e-3	-5.e-4	-5.e-3	-2.5e-3	-1.e-3	-5.e-3	3.77e-5
GW	1294	1	-2.5e-3	-1.e-3	-5.e-3	-2.5e-3	-1.5e-3	-5.e-3	3.77e-5
GW	1295	1	-2.5e-3	-1.5e-3	-5.e-3	-2.5e-3	-2.e-3	-5.e-3	3.77e-5
GW	1296	1	-2.5e-3	-2.e-3	-5.e-3	-2.5e-3	-2.5e-3	-5.e-3	3.77e-5
GW	1297	1	-2.5e-3	-2.5e-3	-5.e-3	-2.5e-3	-3.e-3	-5.e-3	3.77e-5
GW	1298	1	-2.5e-3	-3.e-3	-5.e-3	-2.5e-3	-3.5e-3	-5.e-3	3.77e-5
GW	1299	1	-2.5e-3	-3.5e-3	-5.e-3	-2.5e-3	-4.e-3	-5.e-3	3.77e-5
GW	1300	1	-2.5e-3	-4.e-3	-5.e-3	-2.5e-3	-4.5e-3	-5.e-3	3.77e-5
GW	1301	1	-2.e-3	4.5e-3	-5.e-3	-2.e-3	4.e-3	-5.e-3	3.77e-5
GW	1302	1	-2.e-3	4.e-3	-5.e-3	-2.e-3	3.5e-3	-5.e-3	3.77e-5
GW	1303	1	-2.e-3	3.5e-3	-5.e-3	-2.e-3	3.e-3	-5.e-3	3.77e-5
GW	1304	1	-2.e-3	3.e-3	-5.e-3	-2.e-3	2.5e-3	-5.e-3	3.77e-5
GW	1305	1	-2.e-3	2.5e-3	-5.e-3	-2.e-3	2.e-3	-5.e-3	3.77e-5
GW	1306	1	-2.e-3	2.e-3	-5.e-3	-2.e-3	1.5e-3	-5.e-3	3.77e-5
GW	1307	1	-2.e-3	1.5e-3	-5.e-3	-2.e-3	1.e-3	-5.e-3	3.77e-5
GW	1308	1	-2.e-3	1.e-3	-5.e-3	-2.e-3	5.e-4	-5.e-3	3.77e-5
GW	1309	1	-2.e-3	5.e-4	-5.e-3	-2.e-3	0	-5.e-3	3.77e-5
GW	1310	1	-2.e-3	0	-5.e-3	-2.e-3	-5.e-4	-5.e-3	3.77e-5
GW	1311	1	-2.e-3	-5.e-4	-5.e-3	-2.e-3	-1.e-3	-5.e-3	3.77e-5
GW	1312	1	-2.e-3	-1.e-3	-5.e-3	-2.e-3	-1.5e-3	-5.e-3	3.77e-5
GW	1313	1	-2.e-3	-1.5e-3	-5.e-3	-2.e-3	-2.e-3	-5.e-3	3.77e-5
GW	1314	1	-2.e-3	-2.e-3	-5.e-3	-2.e-3	-2.5e-3	-5.e-3	3.77e-5
GW	1315	1	-2.e-3	-2.5e-3	-5.e-3	-2.e-3	-3.e-3	-5.e-3	3.77e-5
GW	1316	1	-2.e-3	-3.e-3	-5.e-3	-2.e-3	-3.5e-3	-5.e-3	3.77e-5
GW	1317	1	-2.e-3	-3.5e-3	-5.e-3	-2.e-3	-4.e-3	-5.e-3	3.77e-5
GW	1318	1	-2.e-3	-4.e-3	-5.e-3	-2.e-3	-4.5e-3	-5.e-3	3.77e-5
GW	1319	1	-1.5e-3	4.5e-3	-5.e-3	-1.5e-3	4.e-3	-5.e-3	3.77e-5
GW	1320	1	-1.5e-3	4.e-3	-5.e-3	-1.5e-3	3.5e-3	-5.e-3	3.77e-5
GW	1321	1	-1.5e-3	3.5e-3	-5.e-3	-1.5e-3	3.e-3	-5.e-3	3.77e-5
GW	1322	1	-1.5e-3	3.e-3	-5.e-3	-1.5e-3	2.5e-3	-5.e-3	3.77e-5
GW	1323	1	-1.5e-3	2.5e-3	-5.e-3	-1.5e-3	2.e-3	-5.e-3	3.77e-5
GW	1324	1	-1.5e-3	2.e-3	-5.e-3	-1.5e-3	1.5e-3	-5.e-3	3.77e-5
GW	1325	1	-1.5e-3	1.5e-3	-5.e-3	-1.5e-3	1.e-3	-5.e-3	3.77e-5
GW	1326	1	-1.5e-3	1.e-3	-5.e-3	-1.5e-3	5.e-4	-5.e-3	3.77e-5
GW	1327	1	-1.5e-3	5.e-4	-5.e-3	-1.5e-3	0	-5.e-3	3.77e-5
GW	1328	1	-1.5e-3	0	-5.e-3	-1.5e-3	-5.e-4	-5.e-3	3.77e-5
GW	1329	1	-1.5e-3	-5.e-4	-5.e-3	-1.5e-3	-1.e-3	-5.e-3	3.77e-5
GW	1330	1	-1.5e-3	-1.e-3	-5.e-3	-1.5e-3	-1.5e-3	-5.e-3	3.77e-5
GW	1331	1	-1.5e-3	-1.5e-3	-5.e-3	-1.5e-3	-2.e-3	-5.e-3	3.77e-5
GW	1332	1	-1.5e-3	-2.e-3	-5.e-3	-1.5e-3	-2.5e-3	-5.e-3	3.77e-5
GW	1333	1	-1.5e-3	-2.5e-3	-5.e-3	-1.5e-3	-3.e-3	-5.e-3	3.77e-5
GW	1334	1	-1.5e-3	-3.e-3	-5.e-3	-1.5e-3	-3.5e-3	-5.e-3	3.77e-5
GW	1335	1	-1.5e-3	-3.5e-3	-5.e-3	-1.5e-3	-4.e-3	-5.e-3	3.77e-5
GW	1336	1	-1.5e-3	-4.e-3	-5.e-3	-1.5e-3	-4.5e-3	-5.e-3	3.77e-5
GW	1337	1	-1.e-3	4.5e-3	-5.e-3	-1.e-3	4.e-3	-5.e-3	3.77e-5
GW	1338	1	-1.e-3	4.e-3	-5.e-3	-1.e-3	3.5e-3	-5.e-3	3.77e-5
GW	1339	1	-1.e-3	3.5e-3	-5.e-3	-1.e-3	3.e-3	-5.e-3	3.77e-5
GW	1340	1	-1.e-3	3.e-3	-5.e-3	-1.e-3	2.5e-3	-5.e-3	3.77e-5
GW	1341	1	-1.e-3	2.5e-3	-5.e-3	-1.e-3	2.e-3	-5.e-3	3.77e-5
GW	1342	1	-1.e-3	2.e-3	-5.e-3	-1.e-3	1.5e-3	-5.e-3	3.77e-5
GW	1343	1	-1.e-3	1.5e-3	-5.e-3	-1.e-3	1.e-3	-5.e-3	3.77e-5
GW	1344	1	-1.e-3	1.e-3	-5.e-3	-1.e-3	5.e-4	-5.e-3	3.77e-5
GW	1345	1	-1.e-3	5.e-4	-5.e-3	-1.e-3	0	-5.e-3	3.77e-5
GW	1346	1	-1.e-3	0	-5.e-3	-1.e-3	-5.e-4	-5.e-3	3.77e-5
GW	1347	1	-1.e-3	-5.e-4	-5.e-3	-1.e-3	-1.e-3	-5.e-3	3.77e-5
GW	1348	1	-1.e-3	-1.e-3	-5.e-3	-1.e-3	-1.5e-3	-5.e-3	3.77e-5
GW	1349	1	-1.e-3	-1.5e-3	-5.e-3	-1.e-3	-2.e-3	-5.e-3	3.77e-5
GW	1350	1	-1.e-3	-2.e-3	-5.e-3	-1.e-3	-2.5e-3	-5.e-3	3.77e-5
GW	1351	1	-1.e-3	-2.5e-3	-5.e-3	-1.e-3	-3.e-3	-5.e-3	3.77e-5
GW	1352	1	-1.e-3	-3.e-3	-5.e-3	-1.e-3	-3.5e-3	-5.e-3	3.77e-5
GW	1353	1	-1.e-3	-3.5e-3	-5.e-3	-1.e-3	-4.e-3	-5.e-3	3.77e-5
GW	1354	1	-1.e-3	-4.e-3	-5.e-3	-1.e-3	-4.5e-3	-5.e-3	3.77e-5
GW	1355	1	-5.e-4	4.5e-3	-5.e-3	-5.e-4	4.e-3	-5.e-3	3.77e-5
GW	1356	1	-5.e-4	4.e-3	-5.e-3	-5.e-4	3.5e-3	-5.e-3	3.77e-5
GW	1357	1	-5.e-4	3.5e-3	-5.e-3	-5.e-4	3.e-3	-5.e-3	3.77e-5
GW	1358	1	-5.e-4	3.e-3	-5.e-3	-5.e-4	2.5e-3	-5.e-3	3.77e-5
GW	1359	1	-5.e-4	2.5e-3	-5.e-3	-5.e-4	2.e-3	-5.e-3	3.77e-5
GW	1360	1	-5.e-4	2.e-3	-5.e-3	-5.e-4	1.5e-3	-5.e-3	3.77e-5
GW	1361	1	-5.e-4	1.5e-3	-5.e-3	-5.e-4	1.e-3	-5.e-3	3.77e-5
GW	1362	1	-5.e-4	1.e-3	-5.e-3	-5.e-4	5.e-4	-5.e-3	3.77e-5