CM Length X1 = .1
CM Length X2 = .1
CM Length Y = .1
CM Length Z1 = .2
CM Length Z2 = .2
CM X sections = 2
CM Y sections = 2
CM Z sections = 2
CM Rotate X, Y, Z = 0, 0, 0
CM Move X, Y, Z = 0, 0, 0
CE
GW	1	3	-0.05	-0.05	0.1	-0.05	-0.05	0	.003979
GW	2	3	-0.05	-0.05	0	-0.05	-0.05	-0.1	.003979
GW	3	3	0	-0.05	0.1	0	-0.05	0	.003979
GW	4	3	0	-0.05	0	0	-0.05	-0.1	.003979
GW	5	3	0.05	-0.05	0.1	0.05	-0.05	0	.003979
GW	6	3	0.05	-0.05	0	0.05	-0.05	-0.1	.003979
GW	7	3	-0.05	-0.05	0.1	0	-0.05	0.1	.003979
GW	8	3	0	-0.05	0.1	0.05	-0.05	0.1	.003979
GW	9	3	-0.05	-0.05	0	0	-0.05	0	.003979
GW	10	3	0	-0.05	0	0.05	-0.05	0	.003979
GW	11	3	-0.05	-0.05	-0.1	0	-0.05	-0.1	.003979
GW	12	3	0	-0.05	-0.1	0.05	-0.05	-0.1	.003979
GW	13	3	-0.05	0.05	0.1	-0.05	0.05	0	.003979
GW	14	3	-0.05	0.05	0	-0.05	0.05	-0.1	.003979
GW	15	3	0	0.05	0.1	0	0.05	0	.003979
GW	16	3	0	0.05	0	0	0.05	-0.1	.003979
GW	17	3	0.05	0.05	0.1	0.05	0.05	0	.003979
GW	18	3	0.05	0.05	0	0.05	0.05	-0.1	.003979
GW	19	3	-0.05	0.05	0.1	0	0.05	0.1	.003979
GW	20	3	0	0.05	0.1	0.05	0.05	0.1	.003979
GW	21	3	-0.05	0.05	0	0	0.05	0	.003979
GW	22	3	0	0.05	0	0.05	0.05	0	.003979
GW	23	3	-0.05	0.05	-0.1	0	0.05	-0.1	.003979
GW	24	3	0	0.05	-0.1	0.05	0.05	-0.1	.003979
GW	25	3	-0.05	-0.05	0.1	-0.05	0	0.1	.003979
GW	26	3	-0.05	0	0.1	-0.05	0.05	0.1	.003979
GW	27	3	-0.05	-0.05	0	-0.05	0	0	.003979
GW	28	3	-0.05	0	0	-0.05	0.05	0	.003979
GW	29	3	-0.05	-0.05	-0.1	-0.05	0	-0.1	.003979
GW	30	3	-0.05	0	-0.1	-0.05	0.05	-0.1	.003979
GW	31	3	-0.05	0	0.1	-0.05	0	0	.003979
GW	32	3	-0.05	0	0	-0.05	0	-0.1	.003979
GW	33	3	0.05	-0.05	0.1	0.05	0	0.1	.003979
GW	34	3	0.05	0	0.1	0.05	0.05	0.1	.003979
GW	35	3	0.05	-0.05	0	0.05	0	0	.003979
GW	36	3	0.05	0	0	0.05	0.05	0	.003979
GW	37	3	0.05	-0.05	-0.1	0.05	0	-0.1	.003979
GW	38	3	0.05	0	-0.1	0.05	0.05	-0.1	.003979
GW	39	3	0.05	0	0.1	0.05	0	0	.003979
GW	40	3	0.05	0	0	0.05	0	-0.1	.003979
GW	41	3	0	-0.05	0.1	0	0	0.1	3.979e-3
GW	42	3	0	0	0.1	0	0.05	0.1	3.979e-3
GW	43	3	-0.05	0	0.1	0	0	0.1	3.979e-3
GW	44	3	0	0	0.1	0.05	0	0.1	3.979e-3
GW	45	3	0	-0.05	-0.1	0	0	-0.1	3.979e-3
GW	46	3	0	0	-0.1	0	0.05	-0.1	3.979e-3
GW	47	3	-0.05	0	-0.1	0	0	-0.1	3.979e-3
GW	48	3	0	0	-0.1	0.05	0	-0.1	3.979e-3
GW	1501	131	0.05	0	0.1	3.3963	0	.1	3.979e-3
GW	1502	131	-0.05	0	-.1	-3.3963	0	-.1	3.979e-3
GW	51	3	0	0.05	.1	0	0.209	.1	3.979e-3
GW	52	3	0	-0.05	-.1	0	-.209	-.1	3.979e-3
GE	0
GN	-1
EK
EX	0	51	1	0	0.898028	0.439939	0
EX	0	52	1	0	-0.99974	2.2687e-2	0
FR	0	0	0	0	435	0
EN
