CM Length X1 = .1
CM Length X2 = .1
CM Length Y = .1
CM Length Z1 = .2
CM Length Z2 = .2
CM X sections = 2
CM Y sections = 2
CM Z sections = 2
CM Rotate X, Y, Z = 0, 0, 0
CM Move X, Y, Z = 0, 0, 0
CE
GW	1	1	-0.05	-0.05	0.1	-0.05	-0.05	0	5.305e-3
GW	2	1	-0.05	-0.05	0	-0.05	-0.05	-0.1	5.305e-3
GW	3	1	0	-0.05	0.1	0	-0.05	0	5.305e-3
GW	4	1	0	-0.05	0	0	-0.05	-0.1	5.305e-3
GW	5	1	0.05	-0.05	0.1	0.05	-0.05	0	5.305e-3
GW	6	1	0.05	-0.05	0	0.05	-0.05	-0.1	5.305e-3
GW	7	1	-0.05	-0.05	0.1	0	-0.05	0.1	5.305e-3
GW	8	1	0	-0.05	0.1	0.05	-0.05	0.1	5.305e-3
GW	9	1	-0.05	-0.05	0	0	-0.05	0	5.305e-3
GW	10	1	0	-0.05	0	0.05	-0.05	0	5.305e-3
GW	11	1	-0.05	-0.05	-0.1	0	-0.05	-0.1	5.305e-3
GW	12	1	0	-0.05	-0.1	0.05	-0.05	-0.1	5.305e-3
GW	13	1	-0.05	0.05	0.1	-0.05	0.05	0	5.305e-3
GW	14	1	-0.05	0.05	0	-0.05	0.05	-0.1	5.305e-3
GW	15	1	0	0.05	0.1	0	0.05	0	5.305e-3
GW	16	1	0	0.05	0	0	0.05	-0.1	5.305e-3
GW	17	1	0.05	0.05	0.1	0.05	0.05	0	5.305e-3
GW	18	1	0.05	0.05	0	0.05	0.05	-0.1	5.305e-3
GW	19	1	-0.05	0.05	0.1	0	0.05	0.1	5.305e-3
GW	20	1	0	0.05	0.1	0.05	0.05	0.1	5.305e-3
GW	21	1	-0.05	0.05	0	0	0.05	0	5.305e-3
GW	22	1	0	0.05	0	0.05	0.05	0	5.305e-3
GW	23	1	-0.05	0.05	-0.1	0	0.05	-0.1	5.305e-3
GW	24	1	0	0.05	-0.1	0.05	0.05	-0.1	5.305e-3
GW	25	1	-0.05	-0.05	0.1	-0.05	0	0.1	5.305e-3
GW	26	1	-0.05	0	0.1	-0.05	0.05	0.1	5.305e-3
GW	27	1	-0.05	-0.05	0	-0.05	0	0	5.305e-3
GW	28	1	-0.05	0	0	-0.05	0.05	0	5.305e-3
GW	29	1	-0.05	-0.05	-0.1	-0.05	0	-0.1	5.305e-3
GW	30	1	-0.05	0	-0.1	-0.05	0.05	-0.1	5.305e-3
GW	31	1	-0.05	0	0.1	-0.05	0	0	5.305e-3
GW	32	1	-0.05	0	0	-0.05	0	-0.1	5.305e-3
GW	33	1	0.05	-0.05	0.1	0.05	0	0.1	5.305e-3
GW	34	1	0.05	0	0.1	0.05	0.05	0.1	5.305e-3
GW	35	1	0.05	-0.05	0	0.05	0	0	5.305e-3
GW	36	1	0.05	0	0	0.05	0.05	0	5.305e-3
GW	37	1	0.05	-0.05	-0.1	0.05	0	-0.1	5.305e-3
GW	38	1	0.05	0	-0.1	0.05	0.05	-0.1	5.305e-3
GW	39	1	0.05	0	0.1	0.05	0	0	5.305e-3
GW	40	1	0.05	0	0	0.05	0	-0.1	5.305e-3
GW	41	1	0	-0.05	0.1	0	0	0.1	3.979e-3
GW	42	1	0	0	0.1	0	0.05	0.1	3.979e-3
GW	43	1	-0.05	0	0.1	0	0	0.1	3.979e-3
GW	44	1	0	0	0.1	0.05	0	0.1	3.979e-3
GW	45	1	0	-0.05	-0.1	0	0	-0.1	3.979e-3
GW	46	1	0	0	-0.1	0	0.05	-0.1	3.979e-3
GW	47	1	-0.05	0	-0.1	0	0	-0.1	3.979e-3
GW	48	1	0	0	-0.1	0.05	0	-0.1	3.979e-3
GW	1501	25	0.05	0	0	3.3963	0	0	3.979e-3
GW	1502	25	-0.05	0	0	-3.3963	0	0	3.979e-3
GW	51	3	0	0.05	0	0	0.4	0	3.979e-3
GW	52	3	0	-0.05	0	0	-0.4	0	3.979e-3
GE	0
GN	-1
EK
EX	0	1501	1	0	0.99971	2.4083e-2	0	0
EX	0	1502	1	0	-0.99974	2.2687e-2	0	0
FR	0	0	0	0	21.3	0
EN
