CM Length X1 = .1
CM Length X2 = .1
CM Length Y = .1
CM Length Z1 = .2
CM Length Z2 = .2
CM X sections = 2
CM Y sections = 2
CM Z sections = 2
CM Rotate X, Y, Z = 0, 0, 0
CM Move X, Y, Z = 0, 0, 0
CE
GW	1	2	-0.05	-0.05	0.1	-0.05	-0.05	0	.003979
GW	2	2	-0.05	-0.05	0	-0.05	-0.05	-0.1	.003979
GW	3	2	0	-0.05	0.1	0	-0.05	0	.003979
GW	4	2	0	-0.05	0	0	-0.05	-0.1	.003979
GW	5	2	0.05	-0.05	0.1	0.05	-0.05	0	.003979
GW	6	2	0.05	-0.05	0	0.05	-0.05	-0.1	.003979
GW	7	2	-0.05	-0.05	0.1	0	-0.05	0.1	.003979
GW	8	2	0	-0.05	0.1	0.05	-0.05	0.1	.003979
GW	9	2	-0.05	-0.05	0	0	-0.05	0	.003979
GW	10	2	0	-0.05	0	0.05	-0.05	0	.003979
GW	11	2	-0.05	-0.05	-0.1	0	-0.05	-0.1	.003979
GW	12	2	0	-0.05	-0.1	0.05	-0.05	-0.1	.003979
GW	13	2	-0.05	0.05	0.1	-0.05	0.05	0	.003979
GW	14	2	-0.05	0.05	0	-0.05	0.05	-0.1	.003979
GW	15	2	0	0.05	0.1	0	0.05	0	.003979
GW	16	2	0	0.05	0	0	0.05	-0.1	.003979
GW	17	2	0.05	0.05	0.1	0.05	0.05	0	.003979
GW	18	2	0.05	0.05	0	0.05	0.05	-0.1	.003979
GW	19	2	-0.05	0.05	0.1	0	0.05	0.1	.003979
GW	20	2	0	0.05	0.1	0.05	0.05	0.1	.003979
GW	21	2	-0.05	0.05	0	0	0.05	0	.003979
GW	22	2	0	0.05	0	0.05	0.05	0	.003979
GW	23	2	-0.05	0.05	-0.1	0	0.05	-0.1	.003979
GW	24	2	0	0.05	-0.1	0.05	0.05	-0.1	.003979
GW	25	2	-0.05	-0.05	0.1	-0.05	0	0.1	.003979
GW	26	2	-0.05	0	0.1	-0.05	0.05	0.1	.003979
GW	27	2	-0.05	-0.05	0	-0.05	0	0	.003979
GW	28	2	-0.05	0	0	-0.05	0.05	0	.003979
GW	29	2	-0.05	-0.05	-0.1	-0.05	0	-0.1	.003979
GW	30	2	-0.05	0	-0.1	-0.05	0.05	-0.1	.003979
GW	31	2	-0.05	0	0.1	-0.05	0	0	.003979
GW	32	2	-0.05	0	0	-0.05	0	-0.1	.003979
GW	33	2	0.05	-0.05	0.1	0.05	0	0.1	.003979
GW	34	2	0.05	0	0.1	0.05	0.05	0.1	.003979
GW	35	2	0.05	-0.05	0	0.05	0	0	.003979
GW	36	2	0.05	0	0	0.05	0.05	0	.003979
GW	37	2	0.05	-0.05	-0.1	0.05	0	-0.1	.003979
GW	38	2	0.05	0	-0.1	0.05	0.05	-0.1	.003979
GW	39	2	0.05	0	0.1	0.05	0	0	.003979
GW	40	2	0.05	0	0	0.05	0	-0.1	.003979
GW	41	2	0	-0.05	0.1	0	0	0.1	3.979e-3
GW	42	2	0	0	0.1	0	0.05	0.1	3.979e-3
GW	43	2	-0.05	0	0.1	0	0	0.1	3.979e-3
GW	44	2	0	0	0.1	0.05	0	0.1	3.979e-3
GW	45	2	0	-0.05	-0.1	0	0	-0.1	3.979e-3
GW	46	2	0	0	-0.1	0	0.05	-0.1	3.979e-3
GW	47	2	-0.05	0	-0.1	0	0	-0.1	3.979e-3
GW	48	2	0	0	-0.1	0.05	0	-0.1	3.979e-3
GW	1501	131	0.05	0	0	3.3963	0	0	3.979e-3
GW	1502	131	-0.05	0	0	-3.3963	0	0	3.979e-3
GW	51	3	0	0.05	0	0	.209	0	3.979e-3
GW	52	3	0	-0.05	0	0	-.209	0	3.979e-3
GE	0
GN	-1
EK
EX	0	51	1	0	0.898028	0.439939	0
EX	0	52	1	0	-0.99974	2.2687e-2	0
FR	0	0	0	0	435	0
EN
