CM Length X1 = .1
CM Length X2 = .1
CM Length Y = .1
CM Length Z1 = .1
CM Length Z2 = .1
CM X sections = 2
CM Y sections = 2
CM Z sections = 2
CM Rotate X, Y, Z = 0, 0, 0
CM Move X, Y, Z = 0, 0, 0
CE
GW	1	1	-.05	-.05	.05	-.05	-.05	0	.003979
GW	2	1	-.05	-.05	0	-.05	-.05	-.05	.003979
GW	3	1	0	-.05	.05	0	-.05	0	.003979
GW	4	1	0	-.05	0	0	-.05	-.05	.003979
GW	5	1	.05	-.05	.05	.05	-.05	0	.003979
GW	6	1	.05	-.05	0	.05	-.05	-.05	.003979
GW	7	1	-.05	-.05	.05	0	-.05	.05	.003979
GW	8	1	0	-.05	.05	.05	-.05	.05	.003979
GW	9	1	-.05	-.05	0	0	-.05	0	.003979
GW	10	1	0	-.05	0	.05	-.05	0	.003979
GW	11	1	-.05	-.05	-.05	0	-.05	-.05	.003979
GW	12	1	0	-.05	-.05	.05	-.05	-.05	.003979
GW	13	1	-.05	.05	.05	-.05	.05	0	.003979
GW	14	1	-.05	.05	0	-.05	.05	-.05	.003979
GW	15	1	0	.05	.05	0	.05	0	.003979
GW	16	1	0	.05	0	0	.05	-.05	.003979
GW	17	1	.05	.05	.05	.05	.05	0	.003979
GW	18	1	.05	.05	0	.05	.05	-.05	.003979
GW	19	1	-.05	.05	.05	0	.05	.05	.003979
GW	20	1	0	.05	.05	.05	.05	.05	.003979
GW	21	1	-.05	.05	0	0	.05	0	.003979
GW	22	1	0	.05	0	.05	.05	0	.003979
GW	23	1	-.05	.05	-.05	0	.05	-.05	.003979
GW	24	1	0	.05	-.05	.05	.05	-.05	.003979
GW	25	1	-.05	-.05	.05	-.05	0	.05	.003979
GW	26	1	-.05	0	.05	-.05	.05	.05	.003979
GW	27	1	-.05	-.05	0	-.05	0	0	.003979
GW	28	1	-.05	0	0	-.05	.05	0	.003979
GW	29	1	-.05	-.05	-.05	-.05	0	-.05	.003979
GW	30	1	-.05	0	-.05	-.05	.05	-.05	.003979
GW	31	1	-.05	0	.05	-.05	0	0	.003979
GW	32	1	-.05	0	0	-.05	0	-.05	.003979
GW	33	1	.05	-.05	.05	.05	0	.05	.003979
GW	34	1	.05	0	.05	.05	.05	.05	.003979
GW	35	1	.05	-.05	0	.05	0	0	.003979
GW	36	1	.05	0	0	.05	.05	0	.003979
GW	37	1	.05	-.05	-.05	.05	0	-.05	.003979
GW	38	1	.05	0	-.05	.05	.05	-.05	.003979
GW	39	1	.05	0	.05	.05	0	0	.003979
GW	40	1	.05	0	0	.05	0	-.05	.003979
GW	41	1	0	-.05	.05	0	0	.05	.003979
GW	42	1	0	0	.05	0	.05	.05	.003979
GW	43	1	-.05	0	.05	0	0	.05	.003979
GW	44	1	0	0	.05	.05	0	.05	.003979
GW	45	1	0	-.05	-.05	0	0	-.05	.003979
GW	46	1	0	0	-.05	0	.05	-.05	.003979
GW	47	1	-.05	0	-.05	0	0	-.05	.003979
GW	48	1	0	0	-.05	.05	0	-.05	.003979
GW	51	3	0	0.05	0	0	0.1917	0	0.003979
GW	52	3	0	-0.05	0	0	-0.1917	0	.003979
GE	0
GN	-1
EK
EX	0	51	1	0	0.898028	0.439939	0	'testing
EX	0	52	1	0	-0.89803	0.439939	0
FR	0	0	0	0	435	0
EN
