CM Length X1 = 0.1
CM Length X2 = 0.1
CM Length Y = 0.2
CM X sections = 10
CM Y sections = 10
CM Rotate X, Y, Z = 0, 0, 0
CM Move X, Y, Z = 0, 0, 0
CE
GW	1	1	-.05	-.1	0.05	-.05	-.08	0.05	.001061
GW	2	1	-.05	-.08	0.05	-.05	-.06	0.05	.001061
GW	3	1	-.05	-.06	0.05	-.05	-.04	0.05	.001061
GW	4	1	-.05	-.04	0.05	-.05	-.02	0.05	.001061
GW	5	1	-.05	-.02	0.05	-.05	0	0.05	.001061
GW	6	1	-.05	0	0.05	-.05	.02	0.05	.001061
GW	7	1	-.05	.02	0.05	-.05	.04	0.05	.001061
GW	8	1	-.05	.04	0.05	-.05	.06	0.05	.001061
GW	9	1	-.05	.06	0.05	-.05	.08	0.05	.001061
GW	10	1	-.05	.08	0.05	-.05	.1	0.05	.001061
GW	11	1	-.04	-.1	0.05	-.04	-.08	0.05	.001061
GW	12	1	-.04	-.08	0.05	-.04	-.06	0.05	.001061
GW	13	1	-.04	-.06	0.05	-.04	-.04	0.05	.001061
GW	14	1	-.04	-.04	0.05	-.04	-.02	0.05	.001061
GW	15	1	-.04	-.02	0.05	-.04	0	0.05	.001061
GW	16	1	-.04	0	0.05	-.04	.02	0.05	.001061
GW	17	1	-.04	.02	0.05	-.04	.04	0.05	.001061
GW	18	1	-.04	.04	0.05	-.04	.06	0.05	.001061
GW	19	1	-.04	.06	0.05	-.04	.08	0.05	.001061
GW	20	1	-.04	.08	0.05	-.04	.1	0.05	.001061
GW	21	1	-.03	-.1	0.05	-.03	-.08	0.05	.001061
GW	22	1	-.03	-.08	0.05	-.03	-.06	0.05	.001061
GW	23	1	-.03	-.06	0.05	-.03	-.04	0.05	.001061
GW	24	1	-.03	-.04	0.05	-.03	-.02	0.05	.001061
GW	25	1	-.03	-.02	0.05	-.03	0	0.05	.001061
GW	26	1	-.03	0	0.05	-.03	.02	0.05	.001061
GW	27	1	-.03	.02	0.05	-.03	.04	0.05	.001061
GW	28	1	-.03	.04	0.05	-.03	.06	0.05	.001061
GW	29	1	-.03	.06	0.05	-.03	.08	0.05	.001061
GW	30	1	-.03	.08	0.05	-.03	.1	0.05	.001061
GW	31	1	-.02	-.1	0.05	-.02	-.08	0.05	.001061
GW	32	1	-.02	-.08	0.05	-.02	-.06	0.05	.001061
GW	33	1	-.02	-.06	0.05	-.02	-.04	0.05	.001061
GW	34	1	-.02	-.04	0.05	-.02	-.02	0.05	.001061
GW	35	1	-.02	-.02	0.05	-.02	0	0.05	.001061
GW	36	1	-.02	0	0.05	-.02	.02	0.05	.001061
GW	37	1	-.02	.02	0.05	-.02	.04	0.05	.001061
GW	38	1	-.02	.04	0.05	-.02	.06	0.05	.001061
GW	39	1	-.02	.06	0.05	-.02	.08	0.05	.001061
GW	40	1	-.02	.08	0.05	-.02	.1	0.05	.001061
GW	41	1	-.01	-.1	0.05	-.01	-.08	0.05	.001061
GW	42	1	-.01	-.08	0.05	-.01	-.06	0.05	.001061
GW	43	1	-.01	-.06	0.05	-.01	-.04	0.05	.001061
GW	44	1	-.01	-.04	0.05	-.01	-.02	0.05	.001061
GW	45	1	-.01	-.02	0.05	-.01	0	0.05	.001061
GW	46	1	-.01	0	0.05	-.01	.02	0.05	.001061
GW	47	1	-.01	.02	0.05	-.01	.04	0.05	.001061
GW	48	1	-.01	.04	0.05	-.01	.06	0.05	.001061
GW	49	1	-.01	.06	0.05	-.01	.08	0.05	.001061
GW	50	1	-.01	.08	0.05	-.01	.1	0.05	.001061
GW	51	1	0	-.1	0.05	0	-.08	0.05	.001061
GW	52	1	0	-.08	0.05	0	-.06	0.05	.001061
GW	53	1	0	-.06	0.05	0	-.04	0.05	.001061
GW	54	1	0	-.04	0.05	0	-.02	0.05	.001061
GW	55	1	0	-.02	0.05	0	0	0.05	.001061
GW	56	1	0	0	0.05	0	.02	0.05	.001061
GW	57	1	0	.02	0.05	0	.04	0.05	.001061
GW	58	1	0	.04	0.05	0	.06	0.05	.001061
GW	59	1	0	.06	0.05	0	.08	0.05	.001061
GW	60	1	0	.08	0.05	0	.1	0.05	.001061
GW	61	1	.01	-.1	0.05	.01	-.08	0.05	.001061
GW	62	1	.01	-.08	0.05	.01	-.06	0.05	.001061
GW	63	1	.01	-.06	0.05	.01	-.04	0.05	.001061
GW	64	1	.01	-.04	0.05	.01	-.02	0.05	.001061
GW	65	1	.01	-.02	0.05	.01	0	0.05	.001061
GW	66	1	.01	0	0.05	.01	.02	0.05	.001061
GW	67	1	.01	.02	0.05	.01	.04	0.05	.001061
GW	68	1	.01	.04	0.05	.01	.06	0.05	.001061
GW	69	1	.01	.06	0.05	.01	.08	0.05	.001061
GW	70	1	.01	.08	0.05	.01	.1	0.05	.001061
GW	71	1	.02	-.1	0.05	.02	-.08	0.05	.001061
GW	72	1	.02	-.08	0.05	.02	-.06	0.05	.001061
GW	73	1	.02	-.06	0.05	.02	-.04	0.05	.001061
GW	74	1	.02	-.04	0.05	.02	-.02	0.05	.001061
GW	75	1	.02	-.02	0.05	.02	0	0.05	.001061
GW	76	1	.02	0	0.05	.02	.02	0.05	.001061
GW	77	1	.02	.02	0.05	.02	.04	0.05	.001061
GW	78	1	.02	.04	0.05	.02	.06	0.05	.001061
GW	79	1	.02	.06	0.05	.02	.08	0.05	.001061
GW	80	1	.02	.08	0.05	.02	.1	0.05	.001061
GW	81	1	.03	-.1	0.05	.03	-.08	0.05	.001061
GW	82	1	.03	-.08	0.05	.03	-.06	0.05	.001061
GW	83	1	.03	-.06	0.05	.03	-.04	0.05	.001061
GW	84	1	.03	-.04	0.05	.03	-.02	0.05	.001061
GW	85	1	.03	-.02	0.05	.03	0	0.05	.001061
GW	86	1	.03	0	0.05	.03	.02	0.05	.001061
GW	87	1	.03	.02	0.05	.03	.04	0.05	.001061
GW	88	1	.03	.04	0.05	.03	.06	0.05	.001061
GW	89	1	.03	.06	0.05	.03	.08	0.05	.001061
GW	90	1	.03	.08	0.05	.03	.1	0.05	.001061
GW	91	1	.04	-.1	0.05	.04	-.08	0.05	.001061
GW	92	1	.04	-.08	0.05	.04	-.06	0.05	.001061
GW	93	1	.04	-.06	0.05	.04	-.04	0.05	.001061
GW	94	1	.04	-.04	0.05	.04	-.02	0.05	.001061
GW	95	1	.04	-.02	0.05	.04	0	0.05	.001061
GW	96	1	.04	0	0.05	.04	.02	0.05	.001061
GW	97	1	.04	.02	0.05	.04	.04	0.05	.001061
GW	98	1	.04	.04	0.05	.04	.06	0.05	.001061
GW	99	1	.04	.06	0.05	.04	.08	0.05	.001061
GW	100	1	.04	.08	0.05	.04	.1	0.05	.001061
GW	101	1	.05	-.1	0.05	.05	-.08	0.05	.001061
GW	102	1	.05	-.08	0.05	.05	-.06	0.05	.001061
GW	103	1	.05	-.06	0.05	.05	-.04	0.05	.001061
GW	104	1	.05	-.04	0.05	.05	-.02	0.05	.001061
GW	105	1	.05	-.02	0.05	.05	0	0.05	.001061
GW	106	1	.05	0	0.05	.05	.02	0.05	.001061
GW	107	1	.05	.02	0.05	.05	.04	0.05	.001061
GW	108	1	.05	.04	0.05	.05	.06	0.05	.001061
GW	109	1	.05	.06	0.05	.05	.08	0.05	.001061
GW	110	1	.05	.08	0.05	.05	.1	0.05	.001061
GW	111	1	-.05	-.1	0.05	-.04	-.1	0.05	.001061
GW	112	1	-.04	-.1	0.05	-.03	-.1	0.05	.001061
GW	113	1	-.03	-.1	0.05	-.02	-.1	0.05	.001061
GW	114	1	-.02	-.1	0.05	-.01	-.1	0.05	.001061
GW	115	1	-.01	-.1	0.05	0	-.1	0.05	.001061
GW	116	1	0	-.1	0.05	.01	-.1	0.05	.001061
GW	117	1	.01	-.1	0.05	.02	-.1	0.05	.001061
GW	118	1	.02	-.1	0.05	.03	-.1	0.05	.001061
GW	119	1	.03	-.1	0.05	.04	-.1	0.05	.001061
GW	120	1	.04	-.1	0.05	.05	-.1	0.05	.001061
GW	121	1	-.05	-.08	0.05	-.04	-.08	0.05	.001061
GW	122	1	-.04	-.08	0.05	-.03	-.08	0.05	.001061
GW	123	1	-.03	-.08	0.05	-.02	-.08	0.05	.001061
GW	124	1	-.02	-.08	0.05	-.01	-.08	0.05	.001061
GW	125	1	-.01	-.08	0.05	0	-.08	0.05	.001061
GW	126	1	0	-.08	0.05	.01	-.08	0.05	.001061
GW	127	1	.01	-.08	0.05	.02	-.08	0.05	.001061
GW	128	1	.02	-.08	0.05	.03	-.08	0.05	.001061
GW	129	1	.03	-.08	0.05	.04	-.08	0.05	.001061
GW	130	1	.04	-.08	0.05	.05	-.08	0.05	.001061
GW	131	1	-.05	-.06	0.05	-.04	-.06	0.05	.001061
GW	132	1	-.04	-.06	0.05	-.03	-.06	0.05	.001061
GW	133	1	-.03	-.06	0.05	-.02	-.06	0.05	.001061
GW	134	1	-.02	-.06	0.05	-.01	-.06	0.05	.001061
GW	135	1	-.01	-.06	0.05	0	-.06	0.05	.001061
GW	136	1	0	-.06	0.05	.01	-.06	0.05	.001061
GW	137	1	.01	-.06	0.05	.02	-.06	0.05	.001061
GW	138	1	.02	-.06	0.05	.03	-.06	0.05	.001061
GW	139	1	.03	-.06	0.05	.04	-.06	0.05	.001061
GW	140	1	.04	-.06	0.05	.05	-.06	0.05	.001061
GW	141	1	-.05	-.04	0.05	-.04	-.04	0.05	.001061
GW	142	1	-.04	-.04	0.05	-.03	-.04	0.05	.001061
GW	143	1	-.03	-.04	0.05	-.02	-.04	0.05	.001061
GW	144	1	-.02	-.04	0.05	-.01	-.04	0.05	.001061
GW	145	1	-.01	-.04	0.05	0	-.04	0.05	.001061
GW	146	1	0	-.04	0.05	.01	-.04	0.05	.001061
GW	147	1	.01	-.04	0.05	.02	-.04	0.05	.001061
GW	148	1	.02	-.04	0.05	.03	-.04	0.05	.001061
GW	149	1	.03	-.04	0.05	.04	-.04	0.05	.001061
GW	150	1	.04	-.04	0.05	.05	-.04	0.05	.001061
GW	151	1	-.05	-.02	0.05	-.04	-.02	0.05	.001061
GW	152	1	-.04	-.02	0.05	-.03	-.02	0.05	.001061
GW	153	1	-.03	-.02	0.05	-.02	-.02	0.05	.001061
GW	154	1	-.02	-.02	0.05	-.01	-.02	0.05	.001061
GW	155	1	-.01	-.02	0.05	0	-.02	0.05	.001061
GW	156	1	0	-.02	0.05	.01	-.02	0.05	.001061
GW	157	1	.01	-.02	0.05	.02	-.02	0.05	.001061
GW	158	1	.02	-.02	0.05	.03	-.02	0.05	.001061
GW	159	1	.03	-.02	0.05	.04	-.02	0.05	.001061
GW	160	1	.04	-.02	0.05	.05	-.02	0.05	.001061
GW	161	1	-.05	0	0.05	-.04	0	0.05	.001061
GW	162	1	-.04	0	0.05	-.03	0	0.05	.001061
GW	163	1	-.03	0	0.05	-.02	0	0.05	.001061
GW	164	1	-.02	0	0.05	-.01	0	0.05	.001061
GW	165	1	-.01	0	0.05	0	0	0.05	.001061
GW	166	1	0	0	0.05	.01	0	0.05	.001061
GW	167	1	.01	0	0.05	.02	0	0.05	.001061
GW	168	1	.02	0	0.05	.03	0	0.05	.001061
GW	169	1	.03	0	0.05	.04	0	0.05	.001061
GW	170	1	.04	0	0.05	.05	0	0.05	.001061
GW	171	1	-.05	.02	0.05	-.04	.02	0.05	.001061
GW	172	1	-.04	.02	0.05	-.03	.02	0.05	.001061
GW	173	1	-.03	.02	0.05	-.02	.02	0.05	.001061
GW	174	1	-.02	.02	0.05	-.01	.02	0.05	.001061
GW	175	1	-.01	.02	0.05	0	.02	0.05	.001061
GW	176	1	0	.02	0.05	.01	.02	0.05	.001061
GW	177	1	.01	.02	0.05	.02	.02	0.05	.001061
GW	178	1	.02	.02	0.05	.03	.02	0.05	.001061
GW	179	1	.03	.02	0.05	.04	.02	0.05	.001061
GW	180	1	.04	.02	0.05	.05	.02	0.05	.001061
GW	181	1	-.05	.04	0.05	-.04	.04	0.05	.001061
GW	182	1	-.04	.04	0.05	-.03	.04	0.05	.001061
GW	183	1	-.03	.04	0.05	-.02	.04	0.05	.001061
GW	184	1	-.02	.04	0.05	-.01	.04	0.05	.001061
GW	185	1	-.01	.04	0.05	0	.04	0.05	.001061
GW	186	1	0	.04	0.05	.01	.04	0.05	.001061
GW	187	1	.01	.04	0.05	.02	.04	0.05	.001061
GW	188	1	.02	.04	0.05	.03	.04	0.05	.001061
GW	189	1	.03	.04	0.05	.04	.04	0.05	.001061
GW	190	1	.04	.04	0.05	.05	.04	0.05	.001061
GW	191	1	-.05	.06	0.05	-.04	.06	0.05	.001061
GW	192	1	-.04	.06	0.05	-.03	.06	0.05	.001061
GW	193	1	-.03	.06	0.05	-.02	.06	0.05	.001061
GW	194	1	-.02	.06	0.05	-.01	.06	0.05	.001061
GW	195	1	-.01	.06	0.05	0	.06	0.05	.001061
GW	196	1	0	.06	0.05	.01	.06	0.05	.001061
GW	197	1	.01	.06	0.05	.02	.06	0.05	.001061
GW	198	1	.02	.06	0.05	.03	.06	0.05	.001061
GW	199	1	.03	.06	0.05	.04	.06	0.05	.001061
GW	200	1	.04	.06	0.05	.05	.06	0.05	.001061
GW	201	1	-.05	.08	0.05	-.04	.08	0.05	.001061
GW	202	1	-.04	.08	0.05	-.03	.08	0.05	.001061
GW	203	1	-.03	.08	0.05	-.02	.08	0.05	.001061
GW	204	1	-.02	.08	0.05	-.01	.08	0.05	.001061
GW	205	1	-.01	.08	0.05	0	.08	0.05	.001061
GW	206	1	0	.08	0.05	.01	.08	0.05	.001061
GW	207	1	.01	.08	0.05	.02	.08	0.05	.001061
GW	208	1	.02	.08	0.05	.03	.08	0.05	.001061
GW	209	1	.03	.08	0.05	.04	.08	0.05	.001061
GW	210	1	.04	.08	0.05	.05	.08	0.05	.001061
GW	211	1	-.05	.1	0.05	-.04	.1	0.05	.001061
GW	212	1	-.04	.1	0.05	-.03	.1	0.05	.001061
GW	213	1	-.03	.1	0.05	-.02	.1	0.05	.001061
GW	214	1	-.02	.1	0.05	-.01	.1	0.05	.001061
GW	215	1	-.01	.1	0.05	0	.1	0.05	.001061
GW	216	1	0	.1	0.05	.01	.1	0.05	.001061
GW	217	1	.01	.1	0.05	.02	.1	0.05	.001061
GW	218	1	.02	.1	0.05	.03	.1	0.05	.001061
GW	219	1	.03	.1	0.05	.04	.1	0.05	.001061
GW	220	1	.04	.1	0.05	.05	.1	0.05	.001061
GM	1-220	1	0	0	0	0	0	-0.1
GW	222	3	0	0.1	0.05+0.0127	0	0.1	0.199+0.0127	0.0127
GW	223	3	0	0.1	-0.05-0.0127	0	0.1	-0.199-0.0127	0.0127
GE	0
LD	5	1-220	0	0	24900000	'Frame of the Ground
LD	5	222	0	0	1390000	'd
LD	5	223	0	0	1390000

GN	-1
EK
EX	0	222	1	0	0.898028	0.439939	0	0
EX	0	223	1	0	-0.89803	0.439939	0	0






FR	0	0	0	0	435	0
EN
